@<TRIPOS>MOLECULE
ZINC000000001484
31    32    1     0     0
SMALL
USER_CHARGES
@<TRIPOS>ATOM
1      C1     -0.0184    1.5028    0.0103 C.3      1 ZINC000000001484   -0.0800
2      C2      0.0021   -0.0041    0.0020 C.2      1 ZINC000000001484   -0.2600
3      C3     -1.1526   -0.7039    0.0037 C.2      1 ZINC000000001484    0.1800
4      N4     -1.1160   -2.0718   -0.0039 N.am     1 ZINC000000001484   -0.5300
5      C5     -2.3687   -2.8312   -0.0021 C.3      1 ZINC000000001484    0.2900
6      H6     -2.4291   -3.4601    0.8862 H        1 ZINC000000001484    0.1300
7      O7     -3.4999   -1.9353   -0.0616 O.3      1 ZINC000000001484   -0.3500
8      C8     -4.5971   -2.7395   -0.5466 C.3      1 ZINC000000001484    0.0900
9      H9     -5.0003   -3.3556    0.2571 H        1 ZINC000000001484    0.1100
10     C10    -5.6929   -1.8472   -1.1332 C.3      1 ZINC000000001484    0.0900
11     O11    -6.2803   -1.0663   -0.0905 O.3      1 ZINC000000001484   -0.5600
12     C12    -3.9781   -3.6291   -1.6474 C.3      1 ZINC000000001484    0.0600
13     H13    -4.1131   -3.1728   -2.6281 H        1 ZINC000000001484    0.1000
14     O14    -4.5571   -4.9352   -1.6202 O.3      1 ZINC000000001484   -0.5400
15     C15    -2.4770   -3.6931   -1.2795 C.3      1 ZINC000000001484    0.0200
16     H16    -2.1770   -4.7211   -1.0765 H        1 ZINC000000001484    0.1300
17     F17    -1.6971   -3.1498   -2.3061 F        1 ZINC000000001484   -0.1900
18     C18     0.0598   -2.7257   -0.0134 C.2      1 ZINC000000001484    0.7100
19     O19     0.0693   -3.9416   -0.0204 O.2      1 ZINC000000001484   -0.5400
20     N20     1.2256   -2.0531   -0.0157 N.am     1 ZINC000000001484   -0.6500
21     C21     1.2322   -0.7047   -0.0135 C.2      1 ZINC000000001484    0.5500
22     O22     2.2865   -0.0953   -0.0160 O.2      1 ZINC000000001484   -0.5100
23     H23     1.0042    1.8801    0.0026 H        1 ZINC000000001484    0.0800
24     H24    -0.5455    1.8639   -0.8728 H        1 ZINC000000001484    0.0700
25     H25    -0.5286    1.8543    0.9071 H        1 ZINC000000001484    0.0700
26     H26    -2.1006   -0.1866    0.0113 H        1 ZINC000000001484    0.1900
27     H27    -5.2597   -1.1851   -1.8830 H        1 ZINC000000001484    0.0600
28     H28    -6.4586   -2.4692   -1.5966 H        1 ZINC000000001484    0.0700
29     H29    -6.9846   -0.4756   -0.3906 H        1 ZINC000000001484    0.3900
30     H30    -4.2046   -5.5358   -2.2911 H        1 ZINC000000001484    0.3900
31     H31     2.0644   -2.5402   -0.0226 H        1 ZINC000000001484    0.4300
@<TRIPOS>BOND
1     1     2     1
2     1     23    1
3     1     24    1
4     1     25    1
5     2     21    1
6     2     3     2
7     3     4     1
8     3     26    1
9     4     5     1
10    4     18    am
11    5     6     1
12    5     15    1
13    5     7     1
14    7     8     1
15    8     9     1
16    8     10    1
17    8     12    1
18    10    11    1
19    10    27    1
20    10    28    1
21    11    29    1
22    12    13    1
23    12    14    1
24    12    15    1
25    14    30    1
26    15    16    1
27    15    17    1
28    18    19    2
29    18    20    am
30    20    21    am
31    20    31    1
32    21    22    2
@<TRIPOS>SUBSTRUCTURE
1   ZINC000000001484 1     RESIDUE    1   A     ZIN   1
@<TRIPOS>MOLECULE
ZINC000000404256
32    34    1     0     0
SMALL
USER_CHARGES
@<TRIPOS>ATOM
1      N1     -0.0165    1.3681    0.0096 N.pl3    1 ZINC000000404256   -0.8200
2      C2      0.0021   -0.0041    0.0020 C.2      1 ZINC000000404256    0.6600
3      N3     -1.1382   -0.6578    0.0040 N.2      1 ZINC000000404256   -0.5800
4      C4     -1.1685   -1.9955   -0.0031 C.2      1 ZINC000000404256    0.3100
5      C5      0.0312   -2.7162   -0.0129 C.2      1 ZINC000000404256   -0.1400
6      N6     -0.2906   -4.0328   -0.0184 N.2      1 ZINC000000404256   -0.4200
7      C7     -1.5853   -4.1598   -0.0128 C.2      1 ZINC000000404256    0.2300
8      N8     -2.1710   -2.9271   -0.0033 N.pl3    1 ZINC000000404256   -0.4500
9      C9     -3.6099   -2.6516    0.0052 C.3      1 ZINC000000404256    0.3100
10     H10    -3.8228   -1.7686    0.6079 H        1 ZINC000000404256    0.1100
11     C11    -4.1285   -2.4564   -1.4367 C.3      1 ZINC000000404256   -0.1900
12     C12    -5.5270   -3.1132   -1.4248 C.3      1 ZINC000000404256    0.0800
13     H13    -5.5655   -3.9424   -2.1312 H        1 ZINC000000404256    0.0800
14     O14    -6.5359   -2.1487   -1.7314 O.3      1 ZINC000000404256   -0.5500
15     C15    -5.6878   -3.6276    0.0229 C.3      1 ZINC000000404256    0.0900
16     H16    -6.2212   -2.8951    0.6288 H        1 ZINC000000404256    0.1000
17     C17    -6.4282   -4.9665    0.0333 C.3      1 ZINC000000404256    0.0900
18     O18    -6.6690   -5.3671    1.3837 O.3      1 ZINC000000404256   -0.5700
19     O19    -4.3373   -3.7925    0.5103 O.3      1 ZINC000000404256   -0.3500
20     C20     1.2511   -2.0002   -0.0145 C.2      1 ZINC000000404256    0.6000
21     O21     2.3198   -2.5868   -0.0229 O.2      1 ZINC000000404256   -0.5000
22     N22     1.2025   -0.6496   -0.0129 N.am     1 ZINC000000404256   -0.6600
23     H23     0.8168    1.8644    0.0043 H        1 ZINC000000404256    0.4200
24     H24    -0.8631    1.8416    0.0162 H        1 ZINC000000404256    0.4300
25     H25    -2.1170   -5.0999   -0.0150 H        1 ZINC000000404256    0.2200
26     H26    -4.2069   -1.3954   -1.6741 H        1 ZINC000000404256    0.1000
27     H27    -3.4757   -2.9608   -2.1490 H        1 ZINC000000404256    0.0900
28     H28    -6.4458   -1.7504   -2.6079 H        1 ZINC000000404256    0.3900
29     H29    -7.3789   -4.8600   -0.4891 H        1 ZINC000000404256    0.0700
30     H30    -5.8213   -5.7212   -0.4669 H        1 ZINC000000404256    0.0600
31     H31    -7.1361   -6.2098    1.4666 H        1 ZINC000000404256    0.3900
32     H32     2.0260   -0.1371   -0.0140 H        1 ZINC000000404256    0.4200
@<TRIPOS>BOND
1     1     2     1
2     1     23    1
3     1     24    1
4     2     22    1
5     2     3     2
6     3     4     1
7     4     8     1
8     4     5     2
9     5     6     1
10    5     20    1
11    6     7     2
12    7     8     1
13    7     25    1
14    8     9     1
15    9     10    1
16    9     19    1
17    9     11    1
18    11    12    1
19    11    26    1
20    11    27    1
21    12    13    1
22    12    14    1
23    12    15    1
24    14    28    1
25    15    16    1
26    15    17    1
27    15    19    1
28    17    18    1
29    17    29    1
30    17    30    1
31    18    31    1
32    20    21    2
33    20    22    am
34    22    32    1
@<TRIPOS>SUBSTRUCTURE
1   ZINC000000404256 1     RESIDUE    1   A     ZIN   1
@<TRIPOS>MOLECULE
ZINC000000423029
27    28    1     0     0
SMALL
USER_CHARGES
@<TRIPOS>ATOM
1      O1      0.0021   -0.0041    0.0020 O.co2    1 ZINC000000423029   -0.6900
2      C2     -0.0145    1.2150    0.0087 C.2      1 ZINC000000423029    0.4900
3      O3      1.0330    1.8389    0.0021 O.co2    1 ZINC000000423029   -0.6900
4      C4     -1.3296    1.9507    0.0190 C.3      1 ZINC000000423029    0.0500
5      N5     -2.4301    0.9837    0.0189 N.am     1 ZINC000000423029   -0.6900
6      C6     -3.7068    1.4156    0.0273 C.2      1 ZINC000000423029    0.5000
7      O7     -3.9445    2.6049    0.0349 O.2      1 ZINC000000423029   -0.5500
8      C8     -4.8388    0.4209    0.0273 C.3      1 ZINC000000423029    0.0900
9      N9     -6.1173    1.1360    0.0372 N.am     1 ZINC000000423029   -0.5300
10     C10    -6.6886    1.4587    1.2100 C.2      1 ZINC000000423029    0.7100
11     O11    -6.1312    1.1496    2.2456 O.2      1 ZINC000000423029   -0.5300
12     N12    -7.8588    2.1139    1.2672 N.am     1 ZINC000000423029   -0.6300
13     C13    -8.5260    2.4840    0.0917 C.2      1 ZINC000000423029    0.2000
14     C14    -7.9439    2.1547   -1.1195 C.2      1 ZINC000000423029   -0.3500
15     S15    -8.9681    2.7242   -2.4301 S.3      1 ZINC000000423029    0.3200
16     C16   -10.1055    3.3640   -1.3338 C.2      1 ZINC000000423029   -0.2100
17     C17    -9.7303    3.1577   -0.0735 C.2      1 ZINC000000423029   -0.1600
18     C18    -6.7035    1.4672   -1.1287 C.2      1 ZINC000000423029    0.6000
19     O19    -6.1764    1.1692   -2.1855 O.2      1 ZINC000000423029   -0.5000
20     H20    -1.3917    2.5717    0.9126 H        1 ZINC000000423029    0.0700
21     H21    -1.4001    2.5813   -0.8673 H        1 ZINC000000423029    0.0700
22     H22    -2.2400    0.0325    0.0128 H        1 ZINC000000423029    0.4100
23     H23    -4.7768   -0.2001   -0.8664 H        1 ZINC000000423029    0.1300
24     H24    -4.7684   -0.2098    0.9135 H        1 ZINC000000423029    0.1300
25     H25    -8.2459    2.3327    2.1293 H        1 ZINC000000423029    0.4300
26     H26   -11.0132    3.8720   -1.6243 H        1 ZINC000000423029    0.1800
27     H27   -10.3226    3.4920    0.7654 H        1 ZINC000000423029    0.1500
@<TRIPOS>BOND
1     1     2     ar
2     2     3     ar
3     2     4     1
4     4     5     1
5     4     20    1
6     4     21    1
7     5     6     am
8     5     22    1
9     6     7     2
10    6     8     1
11    8     9     1
12    8     23    1
13    8     24    1
14    9     18    am
15    9     10    am
16    10    11    2
17    10    12    am
18    12    13    1
19    12    25    1
20    13    17    1
21    13    14    2
22    14    15    1
23    14    18    1
24    15    16    1
25    16    17    2
26    16    26    1
27    17    27    1
28    18    19    2
@<TRIPOS>SUBSTRUCTURE
1   ZINC000000423029 1     RESIDUE    1   A     ZIN   1
@<TRIPOS>MOLECULE
ZINC000000895160
31    33    1     0     0
SMALL
USER_CHARGES
@<TRIPOS>ATOM
1      O1      0.0021   -0.0041    0.0020 O.2      1 ZINC000000895160   -0.5100
2      C2     -0.0145    1.2148    0.0087 C.2      1 ZINC000000895160    0.5800
3      N3     -1.1834    1.8932    0.0292 N.am     1 ZINC000000895160   -0.6400
4      C4     -1.1897    3.2501    0.0360 C.2      1 ZINC000000895160    0.3900
5      N5     -0.0897    3.9495    0.0233 N.2      1 ZINC000000895160   -0.5100
6      C6      1.1117    3.3553    0.0032 C.2      1 ZINC000000895160    0.2700
7      C7      1.1915    1.9593    0.0012 C.2      1 ZINC000000895160   -0.1000
8      N8      2.5042    1.6313   -0.0214 N.2      1 ZINC000000895160   -0.4300
9      C9      3.2196    2.7189   -0.0331 C.2      1 ZINC000000895160    0.2400
10     N10     2.4020    3.8092   -0.0141 N.pl3    1 ZINC000000895160   -0.4500
11     C11     2.8271    5.2112   -0.0197 C.3      1 ZINC000000895160    0.3100
12     H12     2.1548    5.8132    0.5915 H        1 ZINC000000895160    0.1300
13     O13     4.1838    5.3270    0.4619 O.3      1 ZINC000000895160   -0.3400
14     C14     4.6575    6.5969   -0.0370 C.3      1 ZINC000000895160    0.0500
15     H15     4.2661    7.4131    0.5703 H        1 ZINC000000895160    0.1000
16     C16     6.1871    6.6280   -0.0472 C.3      1 ZINC000000895160    0.0800
17     O17     6.6733    6.5891    1.2959 O.3      1 ZINC000000895160   -0.5600
18     C18     4.1057    6.6858   -1.4772 C.3      1 ZINC000000895160    0.0500
19     H19     4.8471    6.3303   -2.1928 H        1 ZINC000000895160    0.0900
20     O20     3.7189    8.0269   -1.7833 O.3      1 ZINC000000895160   -0.5400
21     C21     2.8711    5.7540   -1.4653 C.3      1 ZINC000000895160    0.0800
22     H22     3.0023    4.9371   -2.1748 H        1 ZINC000000895160    0.0900
23     O23     1.6845    6.4913   -1.7663 O.3      1 ZINC000000895160   -0.5300
24     H24    -2.0228    1.4072    0.0388 H        1 ZINC000000895160    0.4300
25     H25    -2.1374    3.7678    0.0521 H        1 ZINC000000895160    0.2200
26     H26     4.2990    2.7523   -0.0515 H        1 ZINC000000895160    0.2300
27     H27     6.5644    5.7647   -0.5954 H        1 ZINC000000895160    0.0600
28     H28     6.5287    7.5432   -0.5309 H        1 ZINC000000895160    0.0700
29     H29     7.6377    6.6060    1.3658 H        1 ZINC000000895160    0.3900
30     H30     4.4454    8.6641   -1.7460 H        1 ZINC000000895160    0.3900
31     H31     1.6884    6.9025   -2.6415 H        1 ZINC000000895160    0.3900
@<TRIPOS>BOND
1     1     2     2
2     2     7     1
3     2     3     am
4     3     4     1
5     3     24    1
6     4     5     2
7     4     25    1
8     5     6     1
9     6     10    1
10    6     7     2
11    7     8     1
12    8     9     2
13    9     10    1
14    9     26    1
15    10    11    1
16    11    12    1
17    11    21    1
18    11    13    1
19    13    14    1
20    14    15    1
21    14    16    1
22    14    18    1
23    16    17    1
24    16    27    1
25    16    28    1
26    17    29    1
27    18    19    1
28    18    20    1
29    18    21    1
30    20    30    1
31    21    22    1
32    21    23    1
33    23    31    1
@<TRIPOS>SUBSTRUCTURE
1   ZINC000000895160 1     RESIDUE    1   A     ZIN   1
@<TRIPOS>MOLECULE
ZINC000000901374
35    37    1     0     0
SMALL
USER_CHARGES
@<TRIPOS>ATOM
1      C1     -0.0178    1.4608    0.0101 C.3      1 ZINC000000901374    0.0700
2      N2      0.0021   -0.0041    0.0020 N.pl3    1 ZINC000000901374   -0.5900
3      C3      0.0059   -0.6905   -1.1760 C.2      1 ZINC000000901374    0.3900
4      N4      0.4649   -1.9105   -1.2981 N.2      1 ZINC000000901374   -0.5000
5      C5      0.8932   -2.5653   -0.2041 C.2      1 ZINC000000901374    0.2300
6      C6      0.7011   -2.0207    1.0796 C.2      1 ZINC000000901374   -0.0200
7      N7      1.2193   -2.8721    1.9663 N.2      1 ZINC000000901374   -0.4200
8      C8      1.7093   -3.9053    1.3305 C.2      1 ZINC000000901374    0.2000
9      N9      1.5206   -3.7520   -0.0145 N.pl3    1 ZINC000000901374   -0.4400
10     C10     1.9220   -4.6970   -1.0594 C.3      1 ZINC000000901374    0.3100
11     H11     2.2452   -4.1605   -1.9515 H        1 ZINC000000901374    0.1200
12     O12     2.9781   -5.5578   -0.5802 O.3      1 ZINC000000901374   -0.3400
13     C13     2.9483   -6.7142   -1.4448 C.3      1 ZINC000000901374    0.0500
14     H14     3.4282   -6.4885   -2.3971 H        1 ZINC000000901374    0.1000
15     C15     3.6381   -7.9016   -0.7701 C.3      1 ZINC000000901374    0.0800
16     O16     5.0322   -7.6230   -0.6250 O.3      1 ZINC000000901374   -0.5600
17     C17     1.4470   -7.0105   -1.6560 C.3      1 ZINC000000901374    0.0500
18     H18     1.1009   -7.7577   -0.9418 H        1 ZINC000000901374    0.0900
19     O19     1.2068   -7.4500   -2.9944 O.3      1 ZINC000000901374   -0.5400
20     C20     0.7553   -5.6510   -1.3988 C.3      1 ZINC000000901374    0.0800
21     H21     0.0675   -5.7258   -0.5565 H        1 ZINC000000901374    0.0900
22     O22     0.0648   -5.2110   -2.5699 O.3      1 ZINC000000901374   -0.5300
23     C23     0.0232   -0.7206    1.2016 C.2      1 ZINC000000901374    0.4700
24     N24    -0.5132   -0.2823    2.3160 N.2      1 ZINC000000901374   -0.6900
25     H25     1.0048    1.8381    0.0023 H        1 ZINC000000901374    0.0700
26     H26    -0.5450    1.8219   -0.8730 H        1 ZINC000000901374    0.0900
27     H27    -0.5280    1.8123    0.9069 H        1 ZINC000000901374    0.0800
28     H28    -0.3906   -0.2024   -2.0541 H        1 ZINC000000901374    0.2000
29     H29     2.1900   -4.7519    1.7981 H        1 ZINC000000901374    0.2200
30     H30     3.1967   -8.0679    0.2125 H        1 ZINC000000901374    0.0600
31     H31     3.5077   -8.7936   -1.3828 H        1 ZINC000000901374    0.0700
32     H32     5.5337   -8.3344   -0.2036 H        1 ZINC000000901374    0.3900
33     H33     1.6662   -8.2682   -3.2281 H        1 ZINC000000901374    0.3900
34     H34    -0.6393   -5.8076   -2.8589 H        1 ZINC000000901374    0.3900
35     H35    -0.9479    0.5846    2.3369 H        1 ZINC000000901374    0.3400
@<TRIPOS>BOND
1     1     2     1
2     1     25    1
3     1     26    1
4     1     27    1
5     2     23    1
6     2     3     1
7     3     4     2
8     3     28    1
9     4     5     1
10    5     9     1
11    5     6     2
12    6     7     1
13    6     23    1
14    7     8     2
15    8     9     1
16    8     29    1
17    9     10    1
18    10    11    1
19    10    20    1
20    10    12    1
21    12    13    1
22    13    14    1
23    13    15    1
24    13    17    1
25    15    16    1
26    15    30    1
27    15    31    1
28    16    32    1
29    17    18    1
30    17    19    1
31    17    20    1
32    19    33    1
33    20    21    1
34    20    22    1
35    22    34    1
36    23    24    2
37    24    35    1
@<TRIPOS>SUBSTRUCTURE
1   ZINC000000901374 1     RESIDUE    1   A     ZIN   1
@<TRIPOS>MOLECULE
ZINC000000967416
33    35    1     0     0
SMALL
USER_CHARGES
@<TRIPOS>ATOM
1      N1     -0.0168    1.3861    0.0097 N.pl3    1 ZINC000000967416   -0.8000
2      C2      0.0021   -0.0041    0.0020 C.2      1 ZINC000000967416    0.3600
3      N3     -1.0452   -0.7823    0.0022 N.2      1 ZINC000000967416   -0.3500
4      O4     -0.5889   -2.1235   -0.0070 O.3      1 ZINC000000967416    0.0400
5      N5      0.8274   -2.0939   -0.0128 N.2      1 ZINC000000967416   -0.2700
6      C6      1.2017   -0.8459   -0.0140 C.2      1 ZINC000000967416    0.3100
7      N7      2.5240   -0.3875   -0.0196 N.pl3    1 ZINC000000967416   -0.3300
8      N8      2.9440    0.9498   -0.0153 N.2      1 ZINC000000967416   -0.0900
9      N9      4.2308    0.9771   -0.0230 N.2      1 ZINC000000967416   -0.1600
10     C10     4.7092   -0.2807   -0.0323 C.2      1 ZINC000000967416   -0.0500
11     C11     6.1300   -0.6630   -0.0425 C.2      1 ZINC000000967416    0.5600
12     O12     6.9960    0.2013   -0.0433 O.co2    1 ZINC000000967416   -0.6600
13     O13     6.4453   -1.8451   -0.0500 O.co2    1 ZINC000000967416   -0.6600
14     C14     3.6392   -1.1488   -0.0244 C.2      1 ZINC000000967416    0.1000
15     C15     3.7013   -2.6546   -0.0296 C.3      1 ZINC000000967416    0.1300
16     N16     3.7072   -3.1396   -1.4162 N.3      1 ZINC000000967416   -0.5100
17     C17     2.6768   -2.4615   -2.2159 C.3      1 ZINC000000967416    0.0000
18     C18     2.7574   -2.9521   -3.6639 C.3      1 ZINC000000967416    0.0700
19     O19     2.6128   -4.3747   -3.6887 O.3      1 ZINC000000967416   -0.3900
20     C20     3.6005   -5.0672   -2.9204 C.3      1 ZINC000000967416    0.0600
21     C21     3.5285   -4.5980   -1.4649 C.3      1 ZINC000000967416    0.0200
22     H22     0.8166    1.8825    0.0044 H        1 ZINC000000967416    0.4300
23     H23    -0.8633    1.8597    0.0163 H        1 ZINC000000967416    0.4200
24     H24     4.6108   -2.9824    0.4739 H        1 ZINC000000967416    0.1400
25     H25     2.8325   -3.0559    0.4921 H        1 ZINC000000967416    0.0500
26     H26     1.6917   -2.6891   -1.8088 H        1 ZINC000000967416    0.0500
27     H27     2.8435   -1.3847   -2.1867 H        1 ZINC000000967416    0.0700
28     H28     1.9588   -2.4949   -4.2481 H        1 ZINC000000967416    0.0900
29     H29     3.7229   -2.6769   -4.0883 H        1 ZINC000000967416    0.0600
30     H30     3.4116   -6.1397   -2.9669 H        1 ZINC000000967416    0.1000
31     H31     4.5906   -4.8536   -3.3231 H        1 ZINC000000967416    0.0600
32     H32     4.3168   -5.0809   -0.8874 H        1 ZINC000000967416    0.0900
33     H33     2.5569   -4.8598   -1.0457 H        1 ZINC000000967416    0.0400
@<TRIPOS>BOND
1     1     2     1
2     1     22    1
3     1     23    1
4     2     6     1
5     2     3     2
6     3     4     1
7     4     5     1
8     5     6     2
9     6     7     1
10    7     14    1
11    7     8     1
12    8     9     2
13    9     10    1
14    10    11    1
15    10    14    2
16    11    12    ar
17    11    13    ar
18    14    15    1
19    15    16    1
20    15    24    1
21    15    25    1
22    16    21    1
23    16    17    1
24    17    18    1
25    17    26    1
26    17    27    1
27    18    19    1
28    18    28    1
29    18    29    1
30    19    20    1
31    20    21    1
32    20    30    1
33    20    31    1
34    21    32    1
35    21    33    1
@<TRIPOS>SUBSTRUCTURE
1   ZINC000000967416 1     RESIDUE    1   A     ZIN   1
@<TRIPOS>MOLECULE
ZINC000000970363
32    34    1     0     0
SMALL
USER_CHARGES
@<TRIPOS>ATOM
1      N1     -0.0167    1.3797    0.0096 N.pl3    1 ZINC000000970363   -0.8200
2      C2      0.0021   -0.0041    0.0020 C.ar     1 ZINC000000970363    0.5100
3      C3     -1.1953   -0.7393    0.0036 C.ar     1 ZINC000000970363   -0.1000
4      N4     -2.5111   -0.4171    0.0123 N.2      1 ZINC000000970363   -0.4700
5      C5     -3.2237   -1.5060    0.0097 C.2      1 ZINC000000970363    0.2900
6      N6     -2.4068   -2.5973   -0.0008 N.pl3    1 ZINC000000970363   -0.4600
7      C7     -2.8327   -3.9990   -0.0071 C.3      1 ZINC000000970363    0.3200
8      H8     -2.1541   -4.6024   -0.6100 H        1 ZINC000000970363    0.1300
9      O9     -4.1868   -4.1167   -0.4941 O.3      1 ZINC000000970363   -0.3500
10     C10    -4.6994   -5.3693   -0.0101 C.3      1 ZINC000000970363    0.0600
11     H11    -4.5330   -6.1497   -0.7527 H        1 ZINC000000970363    0.1000
12     C12    -6.1957   -5.2408    0.2827 C.3      1 ZINC000000970363    0.0800
13     O13    -6.9039   -5.0286   -0.9402 O.3      1 ZINC000000970363   -0.5600
14     C14    -3.9359   -5.7070    1.2851 C.3      1 ZINC000000970363    0.0500
15     H15    -4.6181   -5.7314    2.1348 H        1 ZINC000000970363    0.0900
16     O16    -3.2574   -6.9578    1.1541 O.3      1 ZINC000000970363   -0.5500
17     C17    -2.9154   -4.5508    1.4389 C.3      1 ZINC000000970363    0.0700
18     H18    -1.9481   -4.9273    1.7717 H        1 ZINC000000970363    0.1000
19     O19    -3.4071   -3.5525    2.3355 O.3      1 ZINC000000970363   -0.5400
20     C20    -1.1125   -2.1421   -0.0049 C.ar     1 ZINC000000970363    0.3100
21     N21     0.0849   -2.7183   -0.0145 N.ar     1 ZINC000000970363   -0.5600
22     C22     1.1806   -1.9886   -0.0159 C.ar     1 ZINC000000970363    0.3600
23     N23     1.1531   -0.6685   -0.0125 N.ar     1 ZINC000000970363   -0.5900
24     H24     0.8167    1.8761    0.0043 H        1 ZINC000000970363    0.4100
25     H25    -0.8632    1.8532    0.0162 H        1 ZINC000000970363    0.4200
26     H26    -4.3032   -1.5401    0.0154 H        1 ZINC000000970363    0.2200
27     H27    -6.5532   -6.1555    0.7556 H        1 ZINC000000970363    0.0600
28     H28    -6.3638   -4.3965    0.9512 H        1 ZINC000000970363    0.0600
29     H29    -7.8603   -4.9378   -0.8301 H        1 ZINC000000970363    0.3900
30     H30    -3.8451   -7.7097    0.9978 H        1 ZINC000000970363    0.3900
31     H31    -3.5643   -3.8738    3.2339 H        1 ZINC000000970363    0.3900
32     H32     2.1380   -2.4885   -0.0238 H        1 ZINC000000970363    0.2100
@<TRIPOS>BOND
1     1     2     1
2     1     24    1
3     1     25    1
4     2     23    ar
5     2     3     ar
6     3     20    ar
7     3     4     1
8     4     5     2
9     5     6     1
10    5     26    1
11    6     7     1
12    6     20    1
13    7     8     1
14    7     17    1
15    7     9     1
16    9     10    1
17    10    11    1
18    10    12    1
19    10    14    1
20    12    13    1
21    12    27    1
22    12    28    1
23    13    29    1
24    14    15    1
25    14    16    1
26    14    17    1
27    16    30    1
28    17    18    1
29    17    19    1
30    19    31    1
31    20    21    ar
32    21    22    ar
33    22    23    ar
34    22    32    1
@<TRIPOS>SUBSTRUCTURE
1   ZINC000000970363 1     RESIDUE    1   A     ZIN   1
@<TRIPOS>MOLECULE
ZINC000001532623
27    26    1     0     0
SMALL
USER_CHARGES
@<TRIPOS>ATOM
1      O1      0.0021   -0.0041    0.0020 O.co2    1 ZINC000001532623   -0.7000
2      C2     -0.0145    1.2150    0.0087 C.2      1 ZINC000001532623    0.4800
3      O3      1.0330    1.8389    0.0021 O.co2    1 ZINC000001532623   -0.7000
4      C4     -1.3296    1.9507    0.0190 C.3      1 ZINC000001532623    0.0100
5      H5     -1.3550    2.6379    0.8646 H        1 ZINC000001532623    0.0900
6      O6     -2.4000    1.0113    0.1364 O.3      1 ZINC000001532623   -0.5400
7      C7     -1.4833    2.7388   -1.2834 C.3      1 ZINC000001532623    0.0700
8      H8     -0.7192    3.5147   -1.3309 H        1 ZINC000001532623    0.1100
9      O9     -1.3338    1.8544   -2.3958 O.3      1 ZINC000001532623   -0.5400
10     C10    -2.8696    3.3847   -1.3281 C.3      1 ZINC000001532623    0.0500
11     H11    -2.9515    4.1247   -0.5319 H        1 ZINC000001532623    0.1000
12     O12    -3.8694    2.3796   -1.1490 O.3      1 ZINC000001532623   -0.5300
13     C13    -3.0703    4.0682   -2.6822 C.3      1 ZINC000001532623    0.0800
14     H14    -2.9884    3.3283   -3.4783 H        1 ZINC000001532623    0.1000
15     O15    -2.0705    5.0733   -2.8613 O.3      1 ZINC000001532623   -0.5500
16     C16    -4.4566    4.7141   -2.7269 C.3      1 ZINC000001532623    0.1100
17     O17    -4.6899    5.2514   -4.0303 O.3      1 ZINC000001532623   -0.7500
18     P18    -6.0527    6.0063   -4.4365 P.3      1 ZINC000001532623    2.1400
19     O19    -7.2756    5.0747   -4.1344 O.co2    1 ZINC000001532623   -1.1900
20     O20    -6.1853    7.3279   -3.6058 O.co2    1 ZINC000001532623   -1.1900
21     O21    -6.0235    6.3506   -5.9646 O.co2    1 ZINC000001532623   -1.1700
22     H22    -2.4389    0.3673   -0.5840 H        1 ZINC000001532623    0.3600
23     H23    -1.9821    1.1373   -2.4181 H        1 ZINC000001532623    0.3600
24     H24    -3.8556    1.6866   -1.8233 H        1 ZINC000001532623    0.3600
25     H25    -2.0842    5.7664   -2.1870 H        1 ZINC000001532623    0.3600
26     H26    -5.2145    3.9637   -2.5022 H        1 ZINC000001532623    0.0500
27     H27    -4.5083    5.5149   -1.9892 H        1 ZINC000001532623    0.0300
@<TRIPOS>BOND
1     1     2     ar
2     2     3     ar
3     2     4     1
4     4     5     1
5     4     6     1
6     4     7     1
7     6     22    1
8     7     8     1
9     7     9     1
10    7     10    1
11    9     23    1
12    10    11    1
13    10    12    1
14    10    13    1
15    12    24    1
16    13    14    1
17    13    15    1
18    13    16    1
19    15    25    1
20    16    17    1
21    16    26    1
22    16    27    1
23    17    18    1
24    18    19    ar
25    18    20    ar
26    18    21    ar
@<TRIPOS>SUBSTRUCTURE
1   ZINC000001532623 1     RESIDUE    1   A     ZIN   1
@<TRIPOS>MOLECULE
ZINC000001550030
  33   35    0    0    0
SMALL
USER_CHARGES
NO_NAME
@<TRIPOS>ATOM
    1 N1       -0.0165     1.3681     0.0096 N.pl3  1 <0>      -0.8200
    2 C2        0.0021    -0.0041     0.0020 C.2    1 <0>       0.6600
    3 N3       -1.1382    -0.6578     0.0040 N.2    1 <0>      -0.5700
    4 C4       -1.1685    -1.9955    -0.0031 C.2    1 <0>       0.3300
    5 C5        0.0312    -2.7162    -0.0129 C.2    1 <0>      -0.1500
    6 N6       -0.2906    -4.0328    -0.0184 N.2    1 <0>      -0.4200
    7 C7       -1.5853    -4.1598    -0.0128 C.2    1 <0>       0.2200
    8 N8       -2.1710    -2.9271    -0.0033 N.pl3  1 <0>      -0.4500
    9 C9       -3.6099    -2.6516     0.0052 C.3    1 <0>       0.3100
   10 H10      -3.8269    -1.7691     0.6070 H      1 <0>       0.1200
   11 O11      -4.3435    -3.7943     0.4956 O.3    1 <0>      -0.3500
   12 C12      -5.6917    -3.6657     0.0139 C.3    1 <0>       0.0500
   13 H13      -6.3034    -3.1539     0.7567 H      1 <0>       0.1000
   14 C14      -6.2750    -5.0503    -0.2756 C.3    1 <0>       0.0800
   15 O15      -6.4145    -5.7738     0.9488 O.3    1 <0>      -0.5600
   16 C16      -5.6375    -2.8349    -1.2829 C.3    1 <0>       0.0400
   17 H17      -5.9782    -3.4289    -2.1310 H      1 <0>       0.0900
   18 O18      -6.4284    -1.6519    -1.1523 O.3    1 <0>      -0.5400
   19 C19      -4.1394    -2.4703    -1.4401 C.3    1 <0>       0.0800
   20 H20      -3.6413    -3.1582    -2.1233 H      1 <0>       0.0900
   21 O21      -3.9869    -1.1192    -1.8797 O.3    1 <0>      -0.5200
   22 C22       1.2511    -2.0002    -0.0145 C.2    1 <0>       0.6000
   23 O23       2.3198    -2.5868    -0.0229 O.2    1 <0>      -0.5100
   24 N24       1.2025    -0.6496    -0.0129 N.am   1 <0>      -0.6600
   25 H25       0.8168     1.8644     0.0043 H      1 <0>       0.4200
   26 H26      -0.8631     1.8416     0.0162 H      1 <0>       0.4300
   27 H27      -2.1170    -5.0999    -0.0150 H      1 <0>       0.2200
   28 H28      -7.2519    -4.9417    -0.7468 H      1 <0>       0.0700
   29 H29      -5.6073    -5.5933    -0.9444 H      1 <0>       0.0600
   30 H30      -6.7797    -6.6627     0.8409 H      1 <0>       0.3900
   31 H31      -7.3671    -1.8219    -0.9941 H      1 <0>       0.3900
   32 H32      -4.3841    -0.9391    -2.7428 H      1 <0>       0.3900
   33 H33       2.0260    -0.1371    -0.0140 H      1 <0>       0.4200
@<TRIPOS>BOND
   1    1    2 1
   2    1   25 1
   3    1   26 1
   4    2   24 1
   5    2    3 2
   6    3    4 1
   7    4    8 1
   8    4    5 2
   9    5    6 1
  10    5   22 1
  11    6    7 2
  12    7    8 1
  13    7   27 1
  14    8    9 1
  15    9   10 1
  16    9   19 1
  17    9   11 1
  18   11   12 1
  19   12   13 1
  20   12   14 1
  21   12   16 1
  22   14   15 1
  23   14   28 1
  24   14   29 1
  25   15   30 1
  26   16   17 1
  27   16   18 1
  28   16   19 1
  29   18   31 1
  30   19   20 1
  31   19   21 1
  32   21   32 1
  33   22   23 2
  34   22   24 am
  35   24   33 1
@<TRIPOS>MOLECULE
ZINC000001561970
  32   34    0    0    0
SMALL
USER_CHARGES
NO_NAME
@<TRIPOS>ATOM
    1 O1        0.0021    -0.0041     0.0020 O.2    1 <0>      -0.5300
    2 C2       -0.0144     1.2118     0.0087 C.2    1 <0>       0.7200
    3 N3       -1.2008     1.8444     0.0290 N.am   1 <0>      -0.6100
    4 C4       -1.2663     3.2188     0.0372 C.2    1 <0>       0.2800
    5 C5       -0.0866     3.9533     0.0248 C.2    1 <0>      -0.0900
    6 N6       -0.4260     5.2646     0.0365 N.2    1 <0>      -0.4100
    7 C7       -1.7234     5.3683     0.0550 C.2    1 <0>       0.2200
    8 N8       -2.2809     4.1228     0.0561 N.pl3  1 <0>      -0.4500
    9 C9       -3.7133     3.8158     0.0748 C.3    1 <0>       0.3000
   10 H10      -3.9223     2.9288    -0.5231 H      1 <0>       0.1200
   11 O11      -4.4809     4.9422    -0.4012 O.3    1 <0>      -0.3400
   12 C12      -5.8166     4.7842     0.1060 C.3    1 <0>       0.0500
   13 H13      -6.4310     4.2590    -0.6253 H      1 <0>       0.1000
   14 C14      -6.4245     6.1556     0.4069 C.3    1 <0>       0.0800
   15 O15      -6.6030     6.8759    -0.8144 O.3    1 <0>      -0.5600
   16 C16      -5.7197     3.9549     1.4011 C.3    1 <0>       0.0500
   17 H17      -6.0572     4.5412     2.2558 H      1 <0>       0.0900
   18 O18      -6.4868     2.7548     1.2852 O.3    1 <0>      -0.5400
   19 C19      -4.2112     3.6231     1.5299 C.3    1 <0>       0.0800
   20 H20      -3.7154     4.3218     2.2037 H      1 <0>       0.1000
   21 O21      -4.0209     2.2757     1.9660 O.3    1 <0>      -0.5400
   22 C22       1.1837     3.2262     0.0028 C.2    1 <0>       0.6000
   23 O23       2.2436     3.8250    -0.0087 O.2    1 <0>      -0.4800
   24 N24       1.1533     1.8759     0.0011 N.am   1 <0>      -0.6500
   25 H25      -2.0204     1.3256     0.0376 H      1 <0>       0.4300
   26 H26      -2.2740     6.2973     0.0681 H      1 <0>       0.2300
   27 H27      -7.3896     6.0257     0.8965 H      1 <0>       0.0700
   28 H28      -5.7563     6.7132     1.0632 H      1 <0>       0.0600
   29 H29      -6.9854     7.7566    -0.6993 H      1 <0>       0.3900
   30 H30      -7.4319     2.9041     1.1448 H      1 <0>       0.3900
   31 H31      -4.3976     2.0870     2.8364 H      1 <0>       0.4000
   32 H32       1.9862     1.3788    -0.0130 H      1 <0>       0.4400
@<TRIPOS>BOND
   1    1    2 2
   2    2   24 am
   3    2    3 am
   4    3    4 1
   5    3   25 1
   6    4    8 1
   7    4    5 2
   8    5    6 1
   9    5   22 1
  10    6    7 2
  11    7    8 1
  12    7   26 1
  13    8    9 1
  14    9   10 1
  15    9   19 1
  16    9   11 1
  17   11   12 1
  18   12   13 1
  19   12   14 1
  20   12   16 1
  21   14   15 1
  22   14   27 1
  23   14   28 1
  24   15   29 1
  25   16   17 1
  26   16   18 1
  27   16   19 1
  28   18   30 1
  29   19   20 1
  30   19   21 1
  31   21   31 1
  32   22   23 2
  33   22   24 am
  34   24   32 1
@<TRIPOS>MOLECULE
ZINC000001576191
34    34    1     0     0
SMALL
USER_CHARGES
@<TRIPOS>ATOM
1      N1     -0.0116    1.0048    0.0076 N.4      1 ZINC000001576191   -0.6200
2      H2      0.0021   -0.0041    0.0020 H        1 ZINC000001576191    0.4400
3      H3      0.9350    1.3541    0.0004 H        1 ZINC000001576191    0.4400
4      H4     -0.4996    1.3391   -0.8099 H        1 ZINC000001576191    0.4400
5      C5     -0.6992    1.4786    1.2162 C.3      1 ZINC000001576191   -0.0300
6      C6      0.0297    0.9794    2.4371 C.2      1 ZINC000001576191    0.4900
7      O7      1.0240    0.2962    2.3126 O.2      1 ZINC000001576191   -0.5400
8      N8     -0.4234    1.2921    3.6673 N.am     1 ZINC000001576191   -0.6800
9      C9      0.2851    0.8068    4.8541 C.3      1 ZINC000001576191    0.1000
10     C10    -0.4203    1.2928    6.0940 C.2      1 ZINC000001576191    0.5000
11     O11    -1.4167    1.9771    5.9959 O.2      1 ZINC000001576191   -0.5500
12     N12     0.0562    0.9669    7.3119 N.am     1 ZINC000001576191   -0.6700
13     C13    -0.6295    1.4394    8.5172 C.3      1 ZINC000001576191    0.0900
14     H14    -1.7044    1.4624    8.3382 H        1 ZINC000001576191    0.1000
15     C15    -0.3263    0.4929    9.6805 C.3      1 ZINC000001576191   -0.0300
16     C16    -0.9167   -0.8632    9.3917 C.2      1 ZINC000001576191    0.0200
17     C17    -0.2499   -2.0332    9.3935 C.2      1 ZINC000001576191   -0.0700
18     N18    -1.1595   -3.0079    9.0832 N.pl3    1 ZINC000001576191   -0.5700
19     C19    -2.3513   -2.3992    8.9025 C.2      1 ZINC000001576191    0.1800
20     N20    -2.1995   -1.1172    9.0935 N.2      1 ZINC000001576191   -0.4800
21     C21    -0.1472    2.8257    8.8587 C.2      1 ZINC000001576191    0.4900
22     O22    -0.8925    3.6087    9.4227 O.co2    1 ZINC000001576191   -0.6800
23     O23     0.9882    3.1643    8.5711 O.co2    1 ZINC000001576191   -0.6900
24     H24    -0.7140    2.5685    1.2222 H        1 ZINC000001576191    0.1700
25     H25    -1.7218    1.1013    1.2239 H        1 ZINC000001576191    0.1600
26     H26    -1.2187    1.8385    3.7668 H        1 ZINC000001576191    0.4200
27     H27     0.2999   -0.2831    4.8481 H        1 ZINC000001576191    0.1000
28     H28     1.3077    1.1841    4.8464 H        1 ZINC000001576191    0.1100
29     H29     0.8532    0.4196    7.3903 H        1 ZINC000001576191    0.3900
30     H30     0.7529    0.4010    9.8023 H        1 ZINC000001576191    0.0800
31     H31    -0.7627    0.8916   10.5964 H        1 ZINC000001576191    0.0900
32     H32     0.8007   -2.1752    9.5997 H        1 ZINC000001576191    0.1800
33     H33    -0.9813   -3.9584    9.0073 H        1 ZINC000001576191    0.4200
34     H34    -3.2775   -2.8921    8.6463 H        1 ZINC000001576191    0.2000
@<TRIPOS>BOND
1     1     2     1
2     1     3     1
3     1     4     1
4     1     5     1
5     5     6     1
6     5     24    1
7     5     25    1
8     6     7     2
9     6     8     am
10    8     9     1
11    8     26    1
12    9     10    1
13    9     27    1
14    9     28    1
15    10    11    2
16    10    12    am
17    12    13    1
18    12    29    1
19    13    14    1
20    13    15    1
21    13    21    1
22    15    16    1
23    15    30    1
24    15    31    1
25    16    20    1
26    16    17    2
27    17    18    1
28    17    32    1
29    18    19    1
30    18    33    1
31    19    20    2
32    19    34    1
33    21    22    ar
34    21    23    ar
@<TRIPOS>SUBSTRUCTURE
1   ZINC000001576191 1     RESIDUE    1   A     ZIN   1
@<TRIPOS>MOLECULE
ZINC000001646665
24    24    1     0     0
SMALL
USER_CHARGES
@<TRIPOS>ATOM
1      O1     -0.2725   -0.4785    0.3386 O.co2    1 ZINC000001646665   -0.6900
2      C2     -0.0351    0.7170    0.3098 C.2      1 ZINC000001646665    0.5100
3      O3      1.1126    1.1135    0.4194 O.co2    1 ZINC000001646665   -0.7400
4      C4     -1.1597    1.7045    0.1327 C.3      1 ZINC000001646665   -0.0200
5      N5     -2.4331    0.9810    0.0189 N.3      1 ZINC000001646665   -0.4400
6      C6     -3.5721    1.8821    0.2401 C.3      1 ZINC000001646665   -0.0100
7      C7     -3.5605    2.3652    1.6675 C.2      1 ZINC000001646665    0.5000
8      O8     -2.6847    1.9934    2.4299 O.co2    1 ZINC000001646665   -0.6700
9      O9     -4.4270    3.1279    2.0600 O.co2    1 ZINC000001646665   -0.7300
10     C10    -2.5407    0.3060   -1.2813 C.3      1 ZINC000001646665    0.0100
11     C11    -3.5840   -0.7895   -1.1599 C.2      1 ZINC000001646665    0.5500
12     O12    -3.4746   -1.6800   -0.3445 O.2      1 ZINC000001646665   -0.4900
13     N13    -4.6407   -0.7284   -2.0004 N.am     1 ZINC000001646665   -0.7100
14     C14    -4.7599    0.2558   -2.9004 C.2      1 ZINC000001646665    0.6800
15     O15    -5.7388    0.2438   -3.6225 O.2      1 ZINC000001646665   -0.6100
16     N16    -3.8820    1.2511   -3.0631 N.2      1 ZINC000001646665   -0.6900
17     C17    -2.7968    1.3604   -2.3408 C.2      1 ZINC000001646665    0.4600
18     O18    -1.9368    2.3736   -2.5317 O.3      1 ZINC000001646665   -0.6300
19     H19    -1.1965    2.3715    0.9940 H        1 ZINC000001646665    0.0900
20     H20    -0.9914    2.2884   -0.7722 H        1 ZINC000001646665    0.0600
21     H21    -3.4959    2.7359   -0.4331 H        1 ZINC000001646665    0.0300
22     H22    -4.5016    1.3473    0.0450 H        1 ZINC000001646665    0.0500
23     H23    -1.5817   -0.1653   -1.4966 H        1 ZINC000001646665    0.1300
24     H24    -5.3269   -1.4122   -1.9509 H        1 ZINC000001646665    0.3800
@<TRIPOS>BOND
1     1     2     ar
2     2     3     ar
3     2     4     1
4     4     5     1
5     4     19    1
6     4     20    1
7     5     6     1
8     5     10    1
9     6     7     1
10    6     21    1
11    6     22    1
12    7     8     ar
13    7     9     ar
14    10    17    1
15    10    11    1
16    10    23    1
17    11    12    2
18    11    13    am
19    13    14    am
20    13    24    1
21    14    15    2
22    14    16    1
23    16    17    2
24    17    18    1
@<TRIPOS>SUBSTRUCTURE
1   ZINC000001646665 1     RESIDUE    1   A     ZIN   1
@<TRIPOS>MOLECULE
ZINC000001693850
  36   38    0    0    0
SMALL
USER_CHARGES
NO_NAME
@<TRIPOS>ATOM
    1 C1       -0.0173     1.4248     0.0099 C.3    1 <0>       0.0300
    2 O2        0.0021    -0.0041     0.0020 O.3    1 <0>      -0.2800
    3 C3        0.6238    -0.6164     1.0381 C.ar   1 <0>       0.4700
    4 C4        0.6938    -2.0162     1.1053 C.ar   1 <0>      -0.1100
    5 N5        0.2536    -3.0300     0.3194 N.2    1 <0>      -0.4400
    6 C6        0.5908    -4.1681     0.8515 C.2    1 <0>       0.2500
    7 N7        1.2704    -3.9557     2.0153 N.pl3  1 <0>      -0.4900
    8 C8        1.8140    -4.9872     2.9023 C.3    1 <0>       0.3100
    9 H9        1.7239    -4.6679     3.9406 H      1 <0>       0.1500
   10 O10       1.1052    -6.2224     2.7075 O.3    1 <0>      -0.3300
   11 C11       1.8405    -6.9795     1.7222 C.3    1 <0>       0.0300
   12 H12       1.6346    -6.6060     0.7191 H      1 <0>       0.1000
   13 C13       1.4996    -8.4677     1.8218 C.3    1 <0>       0.0800
   14 O14       0.1345    -8.6695     1.4505 O.3    1 <0>      -0.5600
   15 C15       3.3214    -6.7285     2.1047 C.3    1 <0>       0.0500
   16 H16       3.6275    -7.3799     2.9233 H      1 <0>       0.1000
   17 O17       4.1766    -6.8999     0.9728 O.3    1 <0>      -0.5500
   18 C18       3.2941    -5.2456     2.5601 C.3    1 <0>       0.0800
   19 H19       3.6182    -4.5918     1.7504 H      1 <0>       0.0900
   20 O20       4.1200    -5.0607     3.7116 O.3    1 <0>      -0.5400
   21 C21       1.3514    -2.5990     2.2026 C.ar   1 <0>       0.3600
   22 N22       1.8810    -1.8116     3.1323 N.ar   1 <0>      -0.5900
   23 C23       1.7920    -0.4955     3.0289 C.ar   1 <0>       0.6300
   24 N24       2.3570     0.2931     4.0178 N.pl3  1 <0>      -0.8100
   25 N25       1.1840     0.0949     2.0077 N.ar   1 <0>      -0.6200
   26 H26       1.0053     1.8021     0.0021 H      1 <0>       0.0600
   27 H27      -0.5445     1.7859    -0.8732 H      1 <0>       0.1000
   28 H28      -0.5275     1.7763     0.9067 H      1 <0>       0.0600
   29 H29       0.3655    -5.1383     0.4338 H      1 <0>       0.2200
   30 H30       2.1461    -9.0341     1.1514 H      1 <0>       0.0700
   31 H31       1.6516    -8.8075     2.8462 H      1 <0>       0.0600
   32 H32      -0.1516    -9.5924     1.4904 H      1 <0>       0.3900
   33 H33       4.1587    -7.7910     0.5976 H      1 <0>       0.3900
   34 H34       5.0529    -5.2679     3.5639 H      1 <0>       0.3900
   35 H35       2.8083    -0.1213     4.7698 H      1 <0>       0.4200
   36 H36       2.3012     1.2596     3.9583 H      1 <0>       0.4200
@<TRIPOS>BOND
   1    1    2 1
   2    1   26 1
   3    1   27 1
   4    1   28 1
   5    2    3 1
   6    3   25 ar
   7    3    4 ar
   8    4   21 ar
   9    4    5 1
  10    5    6 2
  11    6    7 1
  12    6   29 1
  13    7    8 1
  14    7   21 1
  15    8    9 1
  16    8   18 1
  17    8   10 1
  18   10   11 1
  19   11   12 1
  20   11   13 1
  21   11   15 1
  22   13   14 1
  23   13   30 1
  24   13   31 1
  25   14   32 1
  26   15   16 1
  27   15   17 1
  28   15   18 1
  29   17   33 1
  30   18   19 1
  31   18   20 1
  32   20   34 1
  33   21   22 ar
  34   22   23 ar
  35   23   24 1
  36   23   25 ar
  37   24   35 1
  38   24   36 1
@<TRIPOS>MOLECULE
ZINC000002047403
32    34    1     0     0
SMALL
USER_CHARGES
@<TRIPOS>ATOM
1      N1     -0.0167    1.3797    0.0096 N.pl3    1 ZINC000002047403   -0.8200
2      C2      0.0021   -0.0041    0.0020 C.ar     1 ZINC000002047403    0.5100
3      C3     -1.1953   -0.7393    0.0036 C.ar     1 ZINC000002047403   -0.1100
4      N4     -2.5111   -0.4171    0.0123 N.2      1 ZINC000002047403   -0.4600
5      C5     -3.2237   -1.5060    0.0097 C.2      1 ZINC000002047403    0.2700
6      N6     -2.4068   -2.5973   -0.0008 N.pl3    1 ZINC000002047403   -0.4700
7      C7     -2.8327   -3.9990   -0.0071 C.3      1 ZINC000002047403    0.3200
8      H8     -2.1455   -4.6062    0.5820 H        1 ZINC000002047403    0.1200
9      O9     -4.1769   -4.1183    0.5076 O.3      1 ZINC000002047403   -0.3400
10     C10    -4.6637   -5.3839    0.0104 C.3      1 ZINC000002047403    0.0500
11     H11    -4.2576   -6.2051    0.6010 H        1 ZINC000002047403    0.1000
12     C12    -6.1931   -5.4144    0.0385 C.3      1 ZINC000002047403    0.0800
13     O13    -6.6454   -5.3862    1.3937 O.3      1 ZINC000002047403   -0.5600
14     C14    -4.1485   -5.4612   -1.4439 C.3      1 ZINC000002047403    0.0500
15     H15    -3.8577   -6.4819   -1.6923 H        1 ZINC000002047403    0.1000
16     O16    -5.1447   -4.9902   -2.3537 O.3      1 ZINC000002047403   -0.5500
17     C17    -2.9134   -4.5300   -1.4555 C.3      1 ZINC000002047403    0.0800
18     H18    -3.0619   -3.7072   -2.1548 H        1 ZINC000002047403    0.0900
19     O19    -1.7352   -5.2652   -1.7923 O.3      1 ZINC000002047403   -0.5400
20     C20    -1.1125   -2.1421   -0.0049 C.ar     1 ZINC000002047403    0.3100
21     N21     0.0849   -2.7183   -0.0145 N.ar     1 ZINC000002047403   -0.5500
22     C22     1.1806   -1.9886   -0.0159 C.ar     1 ZINC000002047403    0.3600
23     N23     1.1531   -0.6685   -0.0125 N.ar     1 ZINC000002047403   -0.5900
24     H24     0.8167    1.8761    0.0043 H        1 ZINC000002047403    0.4100
25     H25    -0.8632    1.8532    0.0162 H        1 ZINC000002047403    0.4200
26     H26    -4.3032   -1.5401    0.0154 H        1 ZINC000002047403    0.2200
27     H27    -6.5837   -4.5465   -0.4930 H        1 ZINC000002047403    0.0700
28     H28    -6.5473   -6.3254   -0.4439 H        1 ZINC000002047403    0.0700
29     H29    -7.6076   -5.4033    1.4877 H        1 ZINC000002047403    0.3900
30     H30    -5.9628   -5.5057   -2.3425 H        1 ZINC000002047403    0.3900
31     H31    -1.7614   -5.6693   -2.6704 H        1 ZINC000002047403    0.3900
32     H32     2.1380   -2.4885   -0.0238 H        1 ZINC000002047403    0.2100
@<TRIPOS>BOND
1     1     2     1
2     1     24    1
3     1     25    1
4     2     23    ar
5     2     3     ar
6     3     20    ar
7     3     4     1
8     4     5     2
9     5     6     1
10    5     26    1
11    6     7     1
12    6     20    1
13    7     8     1
14    7     17    1
15    7     9     1
16    9     10    1
17    10    11    1
18    10    12    1
19    10    14    1
20    12    13    1
21    12    27    1
22    12    28    1
23    13    29    1
24    14    15    1
25    14    16    1
26    14    17    1
27    16    30    1
28    17    18    1
29    17    19    1
30    19    31    1
31    20    21    ar
32    21    22    ar
33    22    23    ar
34    22    32    1
@<TRIPOS>SUBSTRUCTURE
1   ZINC000002047403 1     RESIDUE    1   A     ZIN   1
@<TRIPOS>MOLECULE
ZINC000002169830
32    34    1     0     0
SMALL
USER_CHARGES
@<TRIPOS>ATOM
1      N1     -0.0167    1.3797    0.0096 N.pl3    1 ZINC000002169830   -0.8200
2      C2      0.0021   -0.0041    0.0020 C.ar     1 ZINC000002169830    0.5100
3      C3     -1.1953   -0.7393    0.0036 C.ar     1 ZINC000002169830   -0.1100
4      N4     -2.5111   -0.4171    0.0123 N.2      1 ZINC000002169830   -0.4600
5      C5     -3.2237   -1.5060    0.0097 C.2      1 ZINC000002169830    0.2600
6      N6     -2.4068   -2.5973   -0.0008 N.pl3    1 ZINC000002169830   -0.4700
7      C7     -2.8327   -3.9990   -0.0071 C.3      1 ZINC000002169830    0.3200
8      H8     -2.1541   -4.6024   -0.6100 H        1 ZINC000002169830    0.1200
9      O9     -4.1868   -4.1167   -0.4941 O.3      1 ZINC000002169830   -0.3500
10     C10    -4.6994   -5.3693   -0.0101 C.3      1 ZINC000002169830    0.0500
11     H11    -4.5330   -6.1497   -0.7527 H        1 ZINC000002169830    0.1000
12     C12    -6.1957   -5.2408    0.2827 C.3      1 ZINC000002169830    0.0800
13     O13    -6.9039   -5.0286   -0.9402 O.3      1 ZINC000002169830   -0.5600
14     C14    -3.9359   -5.7070    1.2851 C.3      1 ZINC000002169830    0.0400
15     H15    -4.6181   -5.7314    2.1348 H        1 ZINC000002169830    0.0900
16     O16    -3.2574   -6.9578    1.1541 O.3      1 ZINC000002169830   -0.5400
17     C17    -2.9154   -4.5508    1.4389 C.3      1 ZINC000002169830    0.0800
18     H18    -3.2907   -3.7890    2.1223 H        1 ZINC000002169830    0.0900
19     O19    -1.6475   -5.0443    1.8760 O.3      1 ZINC000002169830   -0.5200
20     C20    -1.1125   -2.1421   -0.0049 C.ar     1 ZINC000002169830    0.3200
21     N21     0.0849   -2.7183   -0.0145 N.ar     1 ZINC000002169830   -0.5500
22     C22     1.1806   -1.9886   -0.0159 C.ar     1 ZINC000002169830    0.3600
23     N23     1.1531   -0.6685   -0.0125 N.ar     1 ZINC000002169830   -0.5900
24     H24     0.8167    1.8761    0.0043 H        1 ZINC000002169830    0.4100
25     H25    -0.8632    1.8532    0.0162 H        1 ZINC000002169830    0.4200
26     H26    -4.3032   -1.5401    0.0154 H        1 ZINC000002169830    0.2200
27     H27    -6.5532   -6.1555    0.7556 H        1 ZINC000002169830    0.0700
28     H28    -6.3638   -4.3965    0.9512 H        1 ZINC000002169830    0.0600
29     H29    -7.8603   -4.9378   -0.8301 H        1 ZINC000002169830    0.3900
30     H30    -3.8451   -7.7097    0.9978 H        1 ZINC000002169830    0.3900
31     H31    -1.6711   -5.4789    2.7395 H        1 ZINC000002169830    0.3900
32     H32     2.1380   -2.4885   -0.0238 H        1 ZINC000002169830    0.2100
@<TRIPOS>BOND
1     1     2     1
2     1     24    1
3     1     25    1
4     2     23    ar
5     2     3     ar
6     3     20    ar
7     3     4     1
8     4     5     2
9     5     6     1
10    5     26    1
11    6     7     1
12    6     20    1
13    7     8     1
14    7     17    1
15    7     9     1
16    9     10    1
17    10    11    1
18    10    12    1
19    10    14    1
20    12    13    1
21    12    27    1
22    12    28    1
23    13    29    1
24    14    15    1
25    14    16    1
26    14    17    1
27    16    30    1
28    17    18    1
29    17    19    1
30    19    31    1
31    20    21    ar
32    21    22    ar
33    22    23    ar
34    22    32    1
@<TRIPOS>SUBSTRUCTURE
1   ZINC000002169830 1     RESIDUE    1   A     ZIN   1
@<TRIPOS>MOLECULE
ZINC000002187132
33    33    1     0     0
SMALL
USER_CHARGES
@<TRIPOS>ATOM
1      O1     -0.0173    1.4248    0.0099 O.3      1 ZINC000002187132   -0.5700
2      C2      0.0021   -0.0041    0.0020 C.3      1 ZINC000002187132    0.0800
3      C3     -1.4333   -0.5336    0.0129 C.3      1 ZINC000002187132    0.0700
4      O4     -2.0889   -0.1578   -1.2000 O.3      1 ZINC000002187132   -0.2700
5      C5     -3.3748   -0.5509   -1.3505 C.ar     1 ZINC000002187132    0.6100
6      N6     -3.9721   -1.2488   -0.3919 N.ar     1 ZINC000002187132   -0.6200
7      C7     -5.2339   -1.6346   -0.5396 C.ar     1 ZINC000002187132    0.6100
8      O8     -5.8426   -2.3458    0.4373 O.3      1 ZINC000002187132   -0.2700
9      C9     -7.2010   -2.7276    0.2114 C.3      1 ZINC000002187132    0.0700
10     C10    -7.7155   -3.5184    1.4159 C.3      1 ZINC000002187132    0.0800
11     O11    -7.7476   -2.6694    2.5648 O.3      1 ZINC000002187132   -0.5700
12     N12    -5.8984   -1.3221   -1.6457 N.ar     1 ZINC000002187132   -0.6200
13     C13    -5.3011   -0.6242   -2.6042 C.ar     1 ZINC000002187132    0.6100
14     O14    -5.9784   -0.3058   -3.7315 O.3      1 ZINC000002187132   -0.2700
15     C15    -5.2737    0.4467   -4.7210 C.3      1 ZINC000002187132    0.0700
16     C16    -6.1950    0.7092   -5.9140 C.3      1 ZINC000002187132    0.0800
17     O17    -7.2787    1.5455   -5.5039 O.3      1 ZINC000002187132   -0.5700
18     N18    -4.0409   -0.2342   -2.4544 N.ar     1 ZINC000002187132   -0.6200
19     H19     0.8606    1.8301    0.0037 H        1 ZINC000002187132    0.3900
20     H20     0.5123   -0.3556   -0.8948 H        1 ZINC000002187132    0.0600
21     H21     0.5293   -0.3651    0.8851 H        1 ZINC000002187132    0.0800
22     H22    -1.4190   -1.6203    0.0965 H        1 ZINC000002187132    0.0900
23     H23    -1.9701   -0.1109    0.8621 H        1 ZINC000002187132    0.0900
24     H24    -7.8115   -1.8349    0.0753 H        1 ZINC000002187132    0.0900
25     H25    -7.2602   -3.3481   -0.6828 H        1 ZINC000002187132    0.0900
26     H26    -8.7205   -3.8854    1.2072 H        1 ZINC000002187132    0.0800
27     H27    -7.0527   -4.3626    1.6063 H        1 ZINC000002187132    0.0600
28     H28    -8.0645   -3.1056    3.3675 H        1 ZINC000002187132    0.3900
29     H29    -4.9522    1.3967   -4.2943 H        1 ZINC000002187132    0.0900
30     H30    -4.4013   -0.1164   -5.0527 H        1 ZINC000002187132    0.0900
31     H31    -5.6326    1.2051   -6.7052 H        1 ZINC000002187132    0.0800
32     H32    -6.5871   -0.2376   -6.2855 H        1 ZINC000002187132    0.0600
33     H33    -7.9044    1.7536   -6.2112 H        1 ZINC000002187132    0.3900
@<TRIPOS>BOND
1     1     2     1
2     1     19    1
3     2     3     1
4     2     20    1
5     2     21    1
6     3     4     1
7     3     22    1
8     3     23    1
9     4     5     1
10    5     18    ar
11    5     6     ar
12    6     7     ar
13    7     8     1
14    7     12    ar
15    8     9     1
16    9     10    1
17    9     24    1
18    9     25    1
19    10    11    1
20    10    26    1
21    10    27    1
22    11    28    1
23    12    13    ar
24    13    14    1
25    13    18    ar
26    14    15    1
27    15    16    1
28    15    29    1
29    15    30    1
30    16    17    1
31    16    31    1
32    16    32    1
33    17    33    1
@<TRIPOS>SUBSTRUCTURE
1   ZINC000002187132 1     RESIDUE    1   A     ZIN   1
@<TRIPOS>MOLECULE
ZINC000002340400
28    29    1     0     0
SMALL
USER_CHARGES
@<TRIPOS>ATOM
1      O1      0.0021   -0.0041    0.0020 O.co2    1 ZINC000002340400   -0.6900
2      C2     -0.0145    1.2150    0.0087 C.2      1 ZINC000002340400    0.4900
3      O3      1.0330    1.8389    0.0021 O.co2    1 ZINC000002340400   -0.6900
4      C4     -1.3296    1.9507    0.0190 C.3      1 ZINC000002340400    0.0500
5      N5     -2.4301    0.9837    0.0189 N.am     1 ZINC000002340400   -0.6900
6      C6     -3.7068    1.4156    0.0273 C.2      1 ZINC000002340400    0.4900
7      O7     -3.9445    2.6049    0.0349 O.2      1 ZINC000002340400   -0.5500
8      C8     -4.8388    0.4209    0.0273 C.3      1 ZINC000002340400    0.1000
9      N9     -6.1173    1.1360    0.0372 N.am     1 ZINC000002340400   -0.4300
10     N10    -6.7177    1.4752    1.2526 N.2      1 ZINC000002340400    0.1000
11     N11    -7.8357    2.1012    1.3286 N.2      1 ZINC000002340400   -0.2100
12     C12    -8.5218    2.4826    0.2224 C.ar     1 ZINC000002340400    0.0600
13     C13    -9.7373    3.1639    0.3202 C.ar     1 ZINC000002340400   -0.0700
14     C14   -10.4059    3.5357   -0.8245 C.ar     1 ZINC000002340400   -0.0900
15     C15    -9.8869    3.2420   -2.0783 C.ar     1 ZINC000002340400   -0.1100
16     C16    -8.6899    2.5705   -2.2007 C.ar     1 ZINC000002340400   -0.0500
17     C17    -7.9972    2.1856   -1.0547 C.ar     1 ZINC000002340400   -0.1500
18     C18    -6.7130    1.4725   -1.1312 C.2      1 ZINC000002340400    0.5300
19     O19    -6.2076    1.1924   -2.2027 O.2      1 ZINC000002340400   -0.5000
20     H20    -1.3917    2.5717    0.9126 H        1 ZINC000002340400    0.0700
21     H21    -1.4001    2.5813   -0.8673 H        1 ZINC000002340400    0.0700
22     H22    -2.2400    0.0325    0.0128 H        1 ZINC000002340400    0.4100
23     H23    -4.7768   -0.2001   -0.8664 H        1 ZINC000002340400    0.1300
24     H24    -4.7684   -0.2098    0.9135 H        1 ZINC000002340400    0.1300
25     H25   -10.1513    3.3978    1.2899 H        1 ZINC000002340400    0.1500
26     H26   -11.3457    4.0621   -0.7462 H        1 ZINC000002340400    0.1400
27     H27   -10.4260    3.5418   -2.9648 H        1 ZINC000002340400    0.1400
28     H28    -8.2913    2.3440   -3.1786 H        1 ZINC000002340400    0.1500
@<TRIPOS>BOND
1     1     2     ar
2     2     3     ar
3     2     4     1
4     4     5     1
5     4     20    1
6     4     21    1
7     5     6     am
8     5     22    1
9     6     7     2
10    6     8     1
11    8     9     1
12    8     23    1
13    8     24    1
14    9     18    am
15    9     10    1
16    10    11    2
17    11    12    1
18    12    17    ar
19    12    13    ar
20    13    14    ar
21    13    25    1
22    14    15    ar
23    14    26    1
24    15    16    ar
25    15    27    1
26    16    17    ar
27    16    28    1
28    17    18    1
29    18    19    2
@<TRIPOS>SUBSTRUCTURE
1   ZINC000002340400 1     RESIDUE    1   A     ZIN   1
@<TRIPOS>MOLECULE
ZINC000002559333
38    37    1     0     0
SMALL
USER_CHARGES
@<TRIPOS>ATOM
1      C1     -0.0184    1.5028    0.0103 C.3      1 ZINC000002559333   -0.1700
2      C2      0.0021   -0.0041    0.0020 C.2      1 ZINC000002559333    0.5200
3      O3      1.0605   -0.5961   -0.0113 O.2      1 ZINC000002559333   -0.5700
4      N4     -1.1558   -0.6938    0.0094 N.am     1 ZINC000002559333   -0.6800
5      C5     -1.1360   -2.1586    0.0013 C.3      1 ZINC000002559333    0.0700
6      H6     -0.2950   -2.5073   -0.5981 H        1 ZINC000002559333    0.1200
7      C7     -0.9918   -2.6668    1.4127 C.2      1 ZINC000002559333    0.3200
8      O8     -0.9137   -1.8860    2.3306 O.2      1 ZINC000002559333   -0.4200
9      C9     -2.4420   -2.6831   -0.5987 C.3      1 ZINC000002559333    0.0500
10     H10    -2.4272   -3.7730   -0.6047 H        1 ZINC000002559333    0.0900
11     O11    -3.5446   -2.2260    0.1871 O.3      1 ZINC000002559333   -0.3400
12     C12    -3.9057   -3.1090    1.2510 C.3      1 ZINC000002559333    0.0200
13     H13    -3.0210   -3.6450    1.5945 H        1 ZINC000002559333    0.0500
14     C14    -4.9472   -4.1117    0.7503 C.3      1 ZINC000002559333   -0.1500
15     C15    -4.4840   -2.3114    2.3914 C.2      1 ZINC000002559333    0.5000
16     O16    -4.6628   -1.1117    2.2673 O.co2    1 ZINC000002559333   -0.6700
17     O17    -4.7731   -2.8657    3.4381 O.co2    1 ZINC000002559333   -0.6900
18     C18    -2.5884   -2.1671   -2.0316 C.3      1 ZINC000002559333    0.1000
19     H19    -1.7968   -2.5876   -2.6518 H        1 ZINC000002559333    0.1100
20     O20    -2.4910   -0.7415   -2.0368 O.3      1 ZINC000002559333   -0.5500
21     C21    -3.9501   -2.5873   -2.5884 C.3      1 ZINC000002559333    0.0800
22     H22    -4.7417   -2.1668   -1.9682 H        1 ZINC000002559333    0.1200
23     O23    -4.0475   -4.0130   -2.5832 O.3      1 ZINC000002559333   -0.5400
24     C24    -4.0964   -2.0714   -4.0213 C.3      1 ZINC000002559333    0.0500
25     O25    -5.4109   -2.3623   -4.5004 O.3      1 ZINC000002559333   -0.5600
26     H26     1.0042    1.8801    0.0026 H        1 ZINC000002559333    0.0900
27     H27    -0.5455    1.8639   -0.8728 H        1 ZINC000002559333    0.0900
28     H28    -0.5286    1.8543    0.9071 H        1 ZINC000002559333    0.0900
29     H29    -2.0023   -0.2203    0.0200 H        1 ZINC000002559333    0.4100
30     H30    -0.9583   -3.7293    1.6033 H        1 ZINC000002559333    0.0900
31     H31    -5.8319   -3.5757    0.4068 H        1 ZINC000002559333    0.0600
32     H32    -4.5289   -4.6886   -0.0746 H        1 ZINC000002559333    0.0500
33     H33    -5.2227   -4.7852    1.5618 H        1 ZINC000002559333    0.0600
34     H34    -3.1659   -0.2992   -1.5040 H        1 ZINC000002559333    0.3900
35     H35    -3.3725   -4.4553   -3.1160 H        1 ZINC000002559333    0.3700
36     H36    -3.9339   -0.9937   -4.0378 H        1 ZINC000002559333    0.0600
37     H37    -3.3606   -2.5596   -4.6602 H        1 ZINC000002559333    0.0400
38     H38    -5.5751   -2.0628   -5.4051 H        1 ZINC000002559333    0.3800
@<TRIPOS>BOND
1     1     2     1
2     1     26    1
3     1     27    1
4     1     28    1
5     2     3     2
6     2     4     am
7     4     5     1
8     4     29    1
9     5     6     1
10    5     7     1
11    5     9     1
12    7     8     2
13    7     30    1
14    9     10    1
15    9     11    1
16    9     18    1
17    11    12    1
18    12    13    1
19    12    14    1
20    12    15    1
21    14    31    1
22    14    32    1
23    14    33    1
24    15    16    ar
25    15    17    ar
26    18    19    1
27    18    20    1
28    18    21    1
29    20    34    1
30    21    22    1
31    21    23    1
32    21    24    1
33    23    35    1
34    24    25    1
35    24    36    1
36    24    37    1
37    25    38    1
@<TRIPOS>SUBSTRUCTURE
1   ZINC000002559333 1     RESIDUE    1   A     ZIN   1
@<TRIPOS>MOLECULE
ZINC000003201876
32    34    1     0     0
SMALL
USER_CHARGES
@<TRIPOS>ATOM
1      N1     -0.0167    1.3797    0.0096 N.pl3    1 ZINC000003201876   -0.8200
2      C2      0.0021   -0.0041    0.0020 C.ar     1 ZINC000003201876    0.5100
3      C3     -1.1953   -0.7393    0.0036 C.ar     1 ZINC000003201876   -0.1100
4      N4     -2.5111   -0.4171    0.0123 N.2      1 ZINC000003201876   -0.4600
5      C5     -3.2237   -1.5060    0.0097 C.2      1 ZINC000003201876    0.2600
6      N6     -2.4068   -2.5973   -0.0008 N.pl3    1 ZINC000003201876   -0.4800
7      C7     -2.8327   -3.9990   -0.0071 C.3      1 ZINC000003201876    0.3100
8      H8     -2.1408   -4.5991    0.5838 H        1 ZINC000003201876    0.1500
9      O9     -4.1600   -4.1089    0.5338 O.3      1 ZINC000003201876   -0.3300
10     C10    -5.0759   -4.0443   -0.5803 C.3      1 ZINC000003201876    0.0300
11     H11    -5.2058   -3.0139   -0.9113 H        1 ZINC000003201876    0.1000
12     C12    -6.4246   -4.6621   -0.2056 C.3      1 ZINC000003201876    0.0800
13     O13    -7.0548   -3.8592    0.7945 O.3      1 ZINC000003201876   -0.5600
14     C14    -4.3723   -4.8849   -1.6761 C.3      1 ZINC000003201876    0.0500
15     H15    -4.5426   -5.9499   -1.5186 H        1 ZINC000003201876    0.1000
16     O16    -4.8051   -4.4890   -2.9791 O.3      1 ZINC000003201876   -0.5500
17     C17    -2.8793   -4.5260   -1.4544 C.3      1 ZINC000003201876    0.0800
18     H18    -2.5656   -3.7503   -2.1531 H        1 ZINC000003201876    0.0900
19     O19    -2.0591   -5.6874   -1.5972 O.3      1 ZINC000003201876   -0.5400
20     C20    -1.1125   -2.1421   -0.0049 C.ar     1 ZINC000003201876    0.3100
21     N21     0.0849   -2.7183   -0.0145 N.ar     1 ZINC000003201876   -0.5600
22     C22     1.1806   -1.9886   -0.0159 C.ar     1 ZINC000003201876    0.3700
23     N23     1.1531   -0.6685   -0.0125 N.ar     1 ZINC000003201876   -0.5900
24     H24     0.8167    1.8761    0.0043 H        1 ZINC000003201876    0.4100
25     H25    -0.8632    1.8532    0.0162 H        1 ZINC000003201876    0.4200
26     H26    -4.3032   -1.5401    0.0154 H        1 ZINC000003201876    0.2200
27     H27    -7.0612   -4.7080   -1.0891 H        1 ZINC000003201876    0.0700
28     H28    -6.2679   -5.6687    0.1820 H        1 ZINC000003201876    0.0600
29     H29    -7.9165   -4.1920    1.0807 H        1 ZINC000003201876    0.3900
30     H30    -5.7518   -4.6120   -3.1334 H        1 ZINC000003201876    0.3900
31     H31    -2.0995   -6.0920   -2.4745 H        1 ZINC000003201876    0.3900
32     H32     2.1380   -2.4885   -0.0238 H        1 ZINC000003201876    0.2100
@<TRIPOS>BOND
1     1     2     1
2     1     24    1
3     1     25    1
4     2     23    ar
5     2     3     ar
6     3     20    ar
7     3     4     1
8     4     5     2
9     5     6     1
10    5     26    1
11    6     7     1
12    6     20    1
13    7     8     1
14    7     17    1
15    7     9     1
16    9     10    1
17    10    11    1
18    10    12    1
19    10    14    1
20    12    13    1
21    12    27    1
22    12    28    1
23    13    29    1
24    14    15    1
25    14    16    1
26    14    17    1
27    16    30    1
28    17    18    1
29    17    19    1
30    19    31    1
31    20    21    ar
32    21    22    ar
33    22    23    ar
34    22    32    1
@<TRIPOS>SUBSTRUCTURE
1   ZINC000003201876 1     RESIDUE    1   A     ZIN   1
@<TRIPOS>MOLECULE
ZINC000003201878
32    34    1     0     0
SMALL
USER_CHARGES
@<TRIPOS>ATOM
1      N1     -0.0168    1.3796    0.0354 N.pl3    1 ZINC000003201878   -0.8200
2      C2      0.0019   -0.0042    0.0374 C.ar     1 ZINC000003201878    0.5100
3      C3     -1.1954   -0.7393    0.0177 C.ar     1 ZINC000003201878   -0.1100
4      N4     -2.5110   -0.4171   -0.0045 N.2      1 ZINC000003201878   -0.4600
5      C5     -3.2236   -1.5060   -0.0153 C.2      1 ZINC000003201878    0.2400
6      N6     -2.4068   -2.5973   -0.0008 N.pl3    1 ZINC000003201878   -0.4700
7      C7     -2.8327   -3.9990   -0.0071 C.3      1 ZINC000003201878    0.3100
8      H8     -2.2050   -4.5825   -0.6805 H        1 ZINC000003201878    0.1500
9      O9     -4.2195   -4.1013   -0.3973 O.3      1 ZINC000003201878   -0.3200
10     C10    -4.9737   -3.7394    0.7800 C.3      1 ZINC000003201878    0.0300
11     H11    -4.9852   -2.6567    0.9054 H        1 ZINC000003201878    0.0900
12     C12    -6.4024   -4.2786    0.6838 C.3      1 ZINC000003201878    0.0800
13     O13    -7.0916   -3.6147   -0.3774 O.3      1 ZINC000003201878   -0.5600
14     C14    -4.2216   -4.4086    1.9517 C.3      1 ZINC000003201878    0.0500
15     H15    -4.2301   -3.7626    2.8296 H        1 ZINC000003201878    0.0900
16     O16    -4.8020   -5.6775    2.2597 O.3      1 ZINC000003201878   -0.5500
17     C17    -2.7779   -4.5841    1.4215 C.3      1 ZINC000003201878    0.0800
18     H18    -2.5070   -5.6395    1.3933 H        1 ZINC000003201878    0.1100
19     O19    -1.8548   -3.8531    2.2312 O.3      1 ZINC000003201878   -0.5300
20     C20    -1.1127   -2.1421    0.0203 C.ar     1 ZINC000003201878    0.3300
21     N21     0.0846   -2.7184    0.0407 N.ar     1 ZINC000003201878   -0.5500
22     C22     1.1802   -1.9888    0.0582 C.ar     1 ZINC000003201878    0.3600
23     N23     1.1528   -0.6687    0.0523 N.ar     1 ZINC000003201878   -0.5900
24     H24     0.8165    1.8759    0.0450 H        1 ZINC000003201878    0.4100
25     H25    -0.8632    1.8532    0.0204 H        1 ZINC000003201878    0.4200
26     H26    -4.3029   -1.5400   -0.0329 H        1 ZINC000003201878    0.2200
27     H27    -6.3738   -5.3498    0.4843 H        1 ZINC000003201878    0.0700
28     H28    -6.9230   -4.0979    1.6243 H        1 ZINC000003201878    0.0700
29     H29    -8.0056   -3.9072   -0.4964 H        1 ZINC000003201878    0.3900
30     H30    -5.7260   -5.6296    2.5407 H        1 ZINC000003201878    0.3800
31     H31    -1.8272   -4.1411    3.1539 H        1 ZINC000003201878    0.3900
32     H32     2.1374   -2.4888    0.0746 H        1 ZINC000003201878    0.2000
@<TRIPOS>BOND
1     1     2     1
2     1     24    1
3     1     25    1
4     2     23    ar
5     2     3     ar
6     3     20    ar
7     3     4     1
8     4     5     2
9     5     6     1
10    5     26    1
11    6     7     1
12    6     20    1
13    7     8     1
14    7     17    1
15    7     9     1
16    9     10    1
17    10    11    1
18    10    12    1
19    10    14    1
20    12    13    1
21    12    27    1
22    12    28    1
23    13    29    1
24    14    15    1
25    14    16    1
26    14    17    1
27    16    30    1
28    17    18    1
29    17    19    1
30    19    31    1
31    20    21    ar
32    21    22    ar
33    22    23    ar
34    22    32    1
@<TRIPOS>SUBSTRUCTURE
1   ZINC000003201878 1     RESIDUE    1   A     ZIN   1
@<TRIPOS>MOLECULE
ZINC000003792372
28    29    1     0     0
SMALL
USER_CHARGES
@<TRIPOS>ATOM
1      O1      0.0021   -0.0041    0.0020 O.2      1 ZINC000003792372   -0.5100
2      C2     -0.0144    1.2136    0.0087 C.2      1 ZINC000003792372    0.5500
3      C3     -1.2461    1.9113    0.0302 C.2      1 ZINC000003792372   -0.2800
4      C4     -1.2363    3.2615    0.0376 C.2      1 ZINC000003792372    0.1700
5      N5     -0.0428    3.9305    0.0245 N.am     1 ZINC000003792372   -0.5300
6      C6     -0.0320    5.3955    0.0326 C.3      1 ZINC000003792372    0.2800
7      H7     -1.0461    5.7861   -0.0522 H        1 ZINC000003792372    0.1500
8      O8      0.7993    5.9037   -1.0328 O.3      1 ZINC000003792372   -0.3300
9      C9      1.1710    7.2445   -0.6719 C.3      1 ZINC000003792372    0.0900
10     H10     0.4626    7.9536   -1.1005 H        1 ZINC000003792372    0.1100
11     C11     2.5820    7.5478   -1.1797 C.3      1 ZINC000003792372    0.0800
12     O12     2.5808    7.5638   -2.6086 O.3      1 ZINC000003792372   -0.5600
13     C13     1.1341    7.3318    0.8662 C.3      1 ZINC000003792372    0.0500
14     H14     2.1287    7.5403    1.2604 H        1 ZINC000003792372    0.1100
15     O15     0.2095    8.3364    1.2881 O.3      1 ZINC000003792372   -0.5300
16     C16     0.6528    5.9291    1.3166 C.3      1 ZINC000003792372    0.2100
17     F17    -0.2611    6.0297    2.3710 F        1 ZINC000003792372   -0.1700
18     F18     1.7370    5.1200    1.6732 F        1 ZINC000003792372   -0.1500
19     C19     1.1209    3.2557    0.0046 C.2      1 ZINC000003792372    0.7000
20     O20     2.1700    3.8702   -0.0065 O.2      1 ZINC000003792372   -0.5000
21     N21     1.1403    1.9098    0.0014 N.am     1 ZINC000003792372   -0.6600
22     H22    -2.1811    1.3708    0.0400 H        1 ZINC000003792372    0.1800
23     H23    -2.1661    3.8107    0.0536 H        1 ZINC000003792372    0.1800
24     H24     2.9015    8.5205   -0.8058 H        1 ZINC000003792372    0.0700
25     H25     3.2687    6.7790   -0.8255 H        1 ZINC000003792372    0.0700
26     H26     3.4449    7.7504   -3.0006 H        1 ZINC000003792372    0.3900
27     H27     0.1461    8.4342    2.2481 H        1 ZINC000003792372    0.4000
28     H28     1.9882    1.4389   -0.0127 H        1 ZINC000003792372    0.4300
@<TRIPOS>BOND
1     1     2     2
2     2     21    am
3     2     3     1
4     3     4     2
5     3     22    1
6     4     5     1
7     4     23    1
8     5     6     1
9     5     19    am
10    6     7     1
11    6     16    1
12    6     8     1
13    8     9     1
14    9     10    1
15    9     11    1
16    9     13    1
17    11    12    1
18    11    24    1
19    11    25    1
20    12    26    1
21    13    14    1
22    13    15    1
23    13    16    1
24    15    27    1
25    16    17    1
26    16    18    1
27    19    20    2
28    19    21    am
29    21    28    1
@<TRIPOS>SUBSTRUCTURE
1   ZINC000003792372 1     RESIDUE    1   A     ZIN   1
@<TRIPOS>MOLECULE
ZINC000003823492
36    38    1     0     0
SMALL
USER_CHARGES
@<TRIPOS>ATOM
1      C1     -0.0173    1.4248    0.0099 C.3      1 ZINC000003823492    0.0300
2      O2      0.0021   -0.0041    0.0020 O.3      1 ZINC000003823492   -0.2800
3      C3      0.6238   -0.6164    1.0381 C.ar     1 ZINC000003823492    0.4700
4      C4      0.6938   -2.0162    1.1053 C.ar     1 ZINC000003823492   -0.1100
5      N5      0.2536   -3.0300    0.3194 N.2      1 ZINC000003823492   -0.4500
6      C6      0.5908   -4.1681    0.8515 C.2      1 ZINC000003823492    0.2800
7      N7      1.2704   -3.9557    2.0153 N.pl3    1 ZINC000003823492   -0.4600
8      C8      1.8140   -4.9872    2.9023 C.3      1 ZINC000003823492    0.3200
9      H9      2.7560   -4.6573    3.3405 H        1 ZINC000003823492    0.1300
10     O10     1.9928   -6.2292    2.1882 O.3      1 ZINC000003823492   -0.3500
11     C11     2.0259   -7.2775    3.1712 C.3      1 ZINC000003823492    0.0600
12     H12     3.0565   -7.4802    3.4623 H        1 ZINC000003823492    0.1000
13     C13     1.3875   -8.5457    2.6010 C.3      1 ZINC000003823492    0.0800
14     O14     2.1959   -9.0479    1.5349 O.3      1 ZINC000003823492   -0.5600
15     C15     1.2235   -6.7864    4.3917 C.3      1 ZINC000003823492    0.0500
16     H16     0.3497   -7.4178    4.5530 H        1 ZINC000003823492    0.0900
17     O17     2.0484   -6.7687    5.5584 O.3      1 ZINC000003823492   -0.5500
18     C18     0.7926   -5.3471    4.0111 C.3      1 ZINC000003823492    0.0700
19     H19     0.8854   -4.6749    4.8641 H        1 ZINC000003823492    0.1000
20     O20    -0.5405   -5.3331    3.4967 O.3      1 ZINC000003823492   -0.5400
21     C21     1.3514   -2.5990    2.2026 C.ar     1 ZINC000003823492    0.3500
22     N22     1.8810   -1.8116    3.1323 N.ar     1 ZINC000003823492   -0.6000
23     C23     1.7920   -0.4955    3.0289 C.ar     1 ZINC000003823492    0.6200
24     N24     2.3570    0.2931    4.0178 N.pl3    1 ZINC000003823492   -0.8100
25     N25     1.1840    0.0949    2.0077 N.ar     1 ZINC000003823492   -0.6200
26     H26     1.0053    1.8021    0.0021 H        1 ZINC000003823492    0.0600
27     H27    -0.5445    1.7859   -0.8732 H        1 ZINC000003823492    0.1000
28     H28    -0.5275    1.7763    0.9067 H        1 ZINC000003823492    0.0600
29     H29     0.3655   -5.1383    0.4338 H        1 ZINC000003823492    0.2200
30     H30     1.3120   -9.2987    3.3854 H        1 ZINC000003823492    0.0600
31     H31     0.3918   -8.3131    2.2235 H        1 ZINC000003823492    0.0600
32     H32     1.8508   -9.8530    1.1253 H        1 ZINC000003823492    0.3900
33     H33     2.3938   -7.6364    5.8091 H        1 ZINC000003823492    0.3900
34     H34    -1.2080   -5.6402    4.1254 H        1 ZINC000003823492    0.3900
35     H35     2.8083   -0.1213    4.7698 H        1 ZINC000003823492    0.4200
36     H36     2.3012    1.2596    3.9583 H        1 ZINC000003823492    0.4200
@<TRIPOS>BOND
1     1     2     1
2     1     26    1
3     1     27    1
4     1     28    1
5     2     3     1
6     3     25    ar
7     3     4     ar
8     4     21    ar
9     4     5     1
10    5     6     2
11    6     7     1
12    6     29    1
13    7     8     1
14    7     21    1
15    8     9     1
16    8     18    1
17    8     10    1
18    10    11    1
19    11    12    1
20    11    13    1
21    11    15    1
22    13    14    1
23    13    30    1
24    13    31    1
25    14    32    1
26    15    16    1
27    15    17    1
28    15    18    1
29    17    33    1
30    18    19    1
31    18    20    1
32    20    34    1
33    21    22    ar
34    22    23    ar
35    23    24    1
36    23    25    ar
37    24    35    1
38    24    36    1
@<TRIPOS>SUBSTRUCTURE
1   ZINC000003823492 1     RESIDUE    1   A     ZIN   1
@<TRIPOS>MOLECULE
ZINC000003830178
32    34    1     0     0
SMALL
USER_CHARGES
@<TRIPOS>ATOM
1      N1     -0.0167    1.3797    0.0096 N.pl3    1 ZINC000003830178   -0.8200
2      C2      0.0021   -0.0041    0.0020 C.ar     1 ZINC000003830178    0.5100
3      C3     -1.1953   -0.7393    0.0036 C.ar     1 ZINC000003830178   -0.1000
4      N4     -2.5111   -0.4171    0.0123 N.2      1 ZINC000003830178   -0.4700
5      C5     -3.2237   -1.5060    0.0097 C.2      1 ZINC000003830178    0.2900
6      N6     -2.4068   -2.5973   -0.0008 N.pl3    1 ZINC000003830178   -0.4500
7      C7     -2.8327   -3.9990   -0.0071 C.3      1 ZINC000003830178    0.3100
8      H8     -2.1455   -4.6062    0.5820 H        1 ZINC000003830178    0.1200
9      O9     -4.1769   -4.1183    0.5076 O.3      1 ZINC000003830178   -0.3500
10     C10    -4.6637   -5.3839    0.0104 C.3      1 ZINC000003830178    0.0500
11     H11    -4.2576   -6.2051    0.6010 H        1 ZINC000003830178    0.1000
12     C12    -6.1931   -5.4144    0.0385 C.3      1 ZINC000003830178    0.0800
13     O13    -6.6454   -5.3862    1.3937 O.3      1 ZINC000003830178   -0.5600
14     C14    -4.1485   -5.4612   -1.4439 C.3      1 ZINC000003830178    0.0500
15     H15    -3.8577   -6.4819   -1.6923 H        1 ZINC000003830178    0.0900
16     O16    -5.1447   -4.9902   -2.3537 O.3      1 ZINC000003830178   -0.5400
17     C17    -2.9134   -4.5300   -1.4555 C.3      1 ZINC000003830178    0.0800
18     H18    -2.0143   -5.0913   -1.7101 H        1 ZINC000003830178    0.1000
19     O19    -3.1069   -3.4531   -2.3747 O.3      1 ZINC000003830178   -0.5300
20     C20    -1.1125   -2.1421   -0.0049 C.ar     1 ZINC000003830178    0.3100
21     N21     0.0849   -2.7183   -0.0145 N.ar     1 ZINC000003830178   -0.5600
22     C22     1.1806   -1.9886   -0.0159 C.ar     1 ZINC000003830178    0.3600
23     N23     1.1531   -0.6685   -0.0125 N.ar     1 ZINC000003830178   -0.5900
24     H24     0.8167    1.8761    0.0043 H        1 ZINC000003830178    0.4100
25     H25    -0.8632    1.8532    0.0162 H        1 ZINC000003830178    0.4200
26     H26    -4.3032   -1.5401    0.0154 H        1 ZINC000003830178    0.2200
27     H27    -6.5837   -4.5465   -0.4930 H        1 ZINC000003830178    0.0700
28     H28    -6.5473   -6.3254   -0.4439 H        1 ZINC000003830178    0.0600
29     H29    -7.6076   -5.4033    1.4877 H        1 ZINC000003830178    0.3900
30     H30    -5.9628   -5.5057   -2.3425 H        1 ZINC000003830178    0.3800
31     H31    -3.2253   -3.7354   -3.2919 H        1 ZINC000003830178    0.3900
32     H32     2.1380   -2.4885   -0.0238 H        1 ZINC000003830178    0.2000
@<TRIPOS>BOND
1     1     2     1
2     1     24    1
3     1     25    1
4     2     23    ar
5     2     3     ar
6     3     20    ar
7     3     4     1
8     4     5     2
9     5     6     1
10    5     26    1
11    6     7     1
12    6     20    1
13    7     8     1
14    7     17    1
15    7     9     1
16    9     10    1
17    10    11    1
18    10    12    1
19    10    14    1
20    12    13    1
21    12    27    1
22    12    28    1
23    13    29    1
24    14    15    1
25    14    16    1
26    14    17    1
27    16    30    1
28    17    18    1
29    17    19    1
30    19    31    1
31    20    21    ar
32    21    22    ar
33    22    23    ar
34    22    32    1
@<TRIPOS>SUBSTRUCTURE
1   ZINC000003830178 1     RESIDUE    1   A     ZIN   1
@<TRIPOS>MOLECULE
ZINC000003830179
32    34    1     0     0
SMALL
USER_CHARGES
@<TRIPOS>ATOM
1      N1     -0.0169    1.3796    0.0412 N.pl3    1 ZINC000003830179   -0.8200
2      C2      0.0017   -0.0042    0.0453 C.ar     1 ZINC000003830179    0.5100
3      C3     -1.1954   -0.7393    0.0208 C.ar     1 ZINC000003830179   -0.1100
4      N4     -2.5109   -0.4171   -0.0082 N.2      1 ZINC000003830179   -0.4500
5      C5     -3.2235   -1.5060   -0.0209 C.2      1 ZINC000003830179    0.2500
6      N6     -2.4068   -2.5973   -0.0008 N.pl3    1 ZINC000003830179   -0.4800
7      C7     -2.8327   -3.9990   -0.0071 C.3      1 ZINC000003830179    0.3000
8      H8     -2.2050   -4.5825   -0.6805 H        1 ZINC000003830179    0.1500
9      O9     -4.2195   -4.1013   -0.3973 O.3      1 ZINC000003830179   -0.3200
10     C10    -4.9737   -3.7394    0.7800 C.3      1 ZINC000003830179    0.0300
11     H11    -4.9852   -2.6567    0.9054 H        1 ZINC000003830179    0.0900
12     C12    -6.4024   -4.2786    0.6838 C.3      1 ZINC000003830179    0.0800
13     O13    -7.0916   -3.6147   -0.3774 O.3      1 ZINC000003830179   -0.5600
14     C14    -4.2216   -4.4086    1.9517 C.3      1 ZINC000003830179    0.0500
15     H15    -4.2301   -3.7626    2.8296 H        1 ZINC000003830179    0.0900
16     O16    -4.8020   -5.6775    2.2597 O.3      1 ZINC000003830179   -0.5400
17     C17    -2.7779   -4.5841    1.4215 C.3      1 ZINC000003830179    0.0900
18     H18    -2.0741   -4.0245    2.0377 H        1 ZINC000003830179    0.0900
19     O19    -2.4217   -5.9676    1.3876 O.3      1 ZINC000003830179   -0.5300
20     C20    -1.1128   -2.1421    0.0259 C.ar     1 ZINC000003830179    0.3100
21     N21     0.0844   -2.7184    0.0530 N.ar     1 ZINC000003830179   -0.5600
22     C22     1.1799   -1.9888    0.0748 C.ar     1 ZINC000003830179    0.3700
23     N23     1.1526   -0.6687    0.0668 N.ar     1 ZINC000003830179   -0.5900
24     H24     0.8164    1.8759    0.0541 H        1 ZINC000003830179    0.4100
25     H25    -0.8632    1.8532    0.0213 H        1 ZINC000003830179    0.4200
26     H26    -4.3027   -1.5400   -0.0437 H        1 ZINC000003830179    0.2200
27     H27    -6.3738   -5.3498    0.4843 H        1 ZINC000003830179    0.0700
28     H28    -6.9230   -4.0979    1.6243 H        1 ZINC000003830179    0.0600
29     H29    -8.0056   -3.9072   -0.4964 H        1 ZINC000003830179    0.3900
30     H30    -5.7260   -5.6296    2.5407 H        1 ZINC000003830179    0.3800
31     H31    -2.4321   -6.3978    2.2535 H        1 ZINC000003830179    0.3900
32     H32     2.1370   -2.4887    0.0966 H        1 ZINC000003830179    0.2100
@<TRIPOS>BOND
1     1     2     1
2     1     24    1
3     1     25    1
4     2     23    ar
5     2     3     ar
6     3     20    ar
7     3     4     1
8     4     5     2
9     5     6     1
10    5     26    1
11    6     7     1
12    6     20    1
13    7     8     1
14    7     17    1
15    7     9     1
16    9     10    1
17    10    11    1
18    10    12    1
19    10    14    1
20    12    13    1
21    12    27    1
22    12    28    1
23    13    29    1
24    14    15    1
25    14    16    1
26    14    17    1
27    16    30    1
28    17    18    1
29    17    19    1
30    19    31    1
31    20    21    ar
32    21    22    ar
33    22    23    ar
34    22    32    1
@<TRIPOS>SUBSTRUCTURE
1   ZINC000003830179 1     RESIDUE    1   A     ZIN   1
@<TRIPOS>MOLECULE
ZINC000003875017
33    32    1     0     0
SMALL
USER_CHARGES
@<TRIPOS>ATOM
1      C1     -0.0178    1.4608    0.0101 C.3      1 ZINC000003875017    0.0300
2      N2      0.0021   -0.0041    0.0020 N.am     1 ZINC000003875017   -0.4200
3      N3      0.0215   -0.6550    1.1156 N.2      1 ZINC000003875017   -0.1300
4      O4      0.0233   -0.0517    2.1737 O.2      1 ZINC000003875017    0.0500
5      C5      0.0001   -0.6716   -1.1688 C.2      1 ZINC000003875017    0.7300
6      O6     -0.0182   -0.0586   -2.2175 O.2      1 ZINC000003875017   -0.5400
7      N7      0.0183   -2.0192   -1.1762 N.am     1 ZINC000003875017   -0.6900
8      C8      0.0162   -2.7448   -2.4489 C.3      1 ZINC000003875017    0.0600
9      H9     -0.5876   -2.2016   -3.1758 H        1 ZINC000003875017    0.1400
10     C10     1.4286   -2.8668   -2.9600 C.2      1 ZINC000003875017    0.3400
11     O11     2.3427   -2.3962   -2.3266 O.2      1 ZINC000003875017   -0.4400
12     C12    -0.5725   -4.1413   -2.2388 C.3      1 ZINC000003875017    0.0800
13     H13    -0.5742   -4.6812   -3.1857 H        1 ZINC000003875017    0.1400
14     O14     0.2191   -4.8535   -1.2858 O.3      1 ZINC000003875017   -0.5400
15     C15    -2.0065   -4.0175   -1.7199 C.3      1 ZINC000003875017    0.0500
16     H16    -2.6305   -3.5534   -2.4837 H        1 ZINC000003875017    0.1200
17     O17    -2.0183   -3.2108   -0.5404 O.3      1 ZINC000003875017   -0.5400
18     C18    -2.5520   -5.4087   -1.3916 C.3      1 ZINC000003875017    0.0900
19     H19    -1.9280   -5.8728   -0.6278 H        1 ZINC000003875017    0.1100
20     O20    -2.5403   -6.2154   -2.5711 O.3      1 ZINC000003875017   -0.5400
21     C21    -3.9860   -5.2849   -0.8727 C.3      1 ZINC000003875017    0.0500
22     O22    -4.4547   -6.5692   -0.4570 O.3      1 ZINC000003875017   -0.5600
23     H23     1.0048    1.8381    0.0023 H        1 ZINC000003875017    0.0800
24     H24    -0.5450    1.8219   -0.8730 H        1 ZINC000003875017    0.1000
25     H25    -0.5280    1.8123    0.9069 H        1 ZINC000003875017    0.1100
26     H26     0.0329   -2.5087   -0.3389 H        1 ZINC000003875017    0.4000
27     H27     1.6233   -3.3751   -3.8928 H        1 ZINC000003875017    0.1200
28     H28     0.2653   -4.4298   -0.4178 H        1 ZINC000003875017    0.3700
29     H29    -1.4825   -3.5640    0.1830 H        1 ZINC000003875017    0.3700
30     H30    -3.0760   -5.8622   -3.2945 H        1 ZINC000003875017    0.3700
31     H31    -4.0081   -4.5986   -0.0262 H        1 ZINC000003875017    0.0600
32     H32    -4.6280   -4.9033   -1.6666 H        1 ZINC000003875017    0.0500
33     H33    -5.3595   -6.5662   -0.1156 H        1 ZINC000003875017    0.3800
@<TRIPOS>BOND
1     1     2     1
2     1     23    1
3     1     24    1
4     1     25    1
5     2     3     1
6     2     5     am
7     3     4     2
8     5     6     2
9     5     7     am
10    7     8     1
11    7     26    1
12    8     9     1
13    8     10    1
14    8     12    1
15    10    11    2
16    10    27    1
17    12    13    1
18    12    14    1
19    12    15    1
20    14    28    1
21    15    16    1
22    15    17    1
23    15    18    1
24    17    29    1
25    18    19    1
26    18    20    1
27    18    21    1
28    20    30    1
29    21    22    1
30    21    31    1
31    21    32    1
32    22    33    1
@<TRIPOS>SUBSTRUCTURE
1   ZINC000003875017 1     RESIDUE    1   A     ZIN   1
@<TRIPOS>MOLECULE
ZINC000003875374
27    27    1     0     0
SMALL
USER_CHARGES
@<TRIPOS>ATOM
1      O1      0.0021   -0.0041    0.0020 O.co2    1 ZINC000003875374   -1.1700
2      P2     -0.0192    1.5624    0.0106 P.3      1 ZINC000003875374    2.1300
3      O3      1.4506    2.1047   -0.0005 O.co2    1 ZINC000003875374   -1.1900
4      O4     -0.7769    2.0814   -1.2586 O.co2    1 ZINC000003875374   -1.1900
5      O5     -0.7728    2.0816    1.3353 O.3      1 ZINC000003875374   -0.7500
6      C6     -0.9560    3.4670    1.6340 C.3      1 ZINC000003875374    0.1400
7      C7     -1.7063    3.6080    2.9599 C.3      1 ZINC000003875374    0.1100
8      H8     -2.6395    3.0469    2.9108 H        1 ZINC000003875374    0.0800
9      O9     -0.8980    3.0966    4.0216 O.3      1 ZINC000003875374   -0.3700
10     C10    -1.5178    3.1568    5.3078 C.3      1 ZINC000003875374    0.2300
11     H11    -2.4487    2.5899    5.2896 H        1 ZINC000003875374    0.0600
12     O12    -0.6391    2.5987    6.2868 O.3      1 ZINC000003875374   -0.5500
13     C13    -1.8156    4.6162    5.6614 C.3      1 ZINC000003875374    0.0600
14     H14    -0.8815    5.1748    5.7195 H        1 ZINC000003875374    0.0800
15     O15    -2.4863    4.6749    6.9218 O.3      1 ZINC000003875374   -0.5600
16     C16    -2.7090    5.2244    4.5759 C.3      1 ZINC000003875374    0.0900
17     H17    -3.6629    4.6974    4.5512 H        1 ZINC000003875374    0.0800
18     O18    -2.9337    6.6066    4.8606 O.3      1 ZINC000003875374   -0.5600
19     C19    -2.0119    5.0855    3.2190 C.3      1 ZINC000003875374    0.0900
20     H20    -1.0817    5.6536    3.2276 H        1 ZINC000003875374    0.0800
21     O21    -2.8673    5.5856    2.1893 O.3      1 ZINC000003875374   -0.5400
22     H22     0.0163    3.9533    1.7133 H        1 ZINC000003875374    0.0400
23     H23    -1.5334    3.9371    0.8379 H        1 ZINC000003875374    0.0700
24     H24    -0.4066    1.6741    6.1252 H        1 ZINC000003875374    0.4000
25     H25    -1.9784    4.3020    7.6554 H        1 ZINC000003875374    0.3900
26     H26    -3.3675    6.7678    5.7097 H        1 ZINC000003875374    0.3800
27     H27    -3.1051    6.5171    2.2933 H        1 ZINC000003875374    0.3800
@<TRIPOS>BOND
1     1     2     ar
2     2     3     ar
3     2     4     ar
4     2     5     1
5     5     6     1
6     6     7     1
7     6     22    1
8     6     23    1
9     7     8     1
10    7     19    1
11    7     9     1
12    9     10    1
13    10    11    1
14    10    12    1
15    10    13    1
16    12    24    1
17    13    14    1
18    13    15    1
19    13    16    1
20    15    25    1
21    16    17    1
22    16    18    1
23    16    19    1
24    18    26    1
25    19    20    1
26    19    21    1
27    21    27    1
@<TRIPOS>SUBSTRUCTURE
1   ZINC000003875374 1     RESIDUE    1   A     ZIN   1
@<TRIPOS>MOLECULE
ZINC000003875977
32    34    1     0     0
SMALL
USER_CHARGES
@<TRIPOS>ATOM
1      N1     -0.0167    1.3795    0.0096 N.pl3    1 ZINC000003875977   -0.8100
2      C2      0.0021   -0.0041    0.0020 C.ar     1 ZINC000003875977    0.5400
3      C3     -1.1956   -0.7388    0.0037 C.ar     1 ZINC000003875977   -0.1200
4      N4     -2.5116   -0.4148    0.0116 N.2      1 ZINC000003875977   -0.4500
5      C5     -3.2254   -1.5027    0.0091 C.2      1 ZINC000003875977    0.2700
6      N6     -2.4093   -2.5952   -0.0007 N.pl3    1 ZINC000003875977   -0.4700
7      C7     -2.8367   -3.9965   -0.0062 C.3      1 ZINC000003875977    0.3100
8      H8     -2.1586   -4.6009   -0.6086 H        1 ZINC000003875977    0.1300
9      O9     -4.1907   -4.1131   -0.4935 O.3      1 ZINC000003875977   -0.3500
10     C10    -4.7048   -5.3649   -0.0088 C.3      1 ZINC000003875977    0.0500
11     H11    -4.5390   -6.1459   -0.7509 H        1 ZINC000003875977    0.1000
12     C12    -6.2009   -5.2347    0.2836 C.3      1 ZINC000003875977    0.0800
13     O13    -6.9087   -5.0224   -0.9395 O.3      1 ZINC000003875977   -0.5600
14     C14    -3.9418   -5.7027    1.2867 C.3      1 ZINC000003875977    0.0400
15     H15    -4.6243   -5.7258    2.1364 H        1 ZINC000003875977    0.0900
16     O16    -3.2646   -6.9542    1.1566 O.3      1 ZINC000003875977   -0.5400
17     C17    -2.9202   -4.5473    1.4401 C.3      1 ZINC000003875977    0.0800
18     H18    -3.2949   -3.7848    2.1230 H        1 ZINC000003875977    0.0900
19     O19    -1.6529   -5.0420    1.8777 O.3      1 ZINC000003875977   -0.5200
20     C20    -1.1146   -2.1414   -0.0043 C.ar     1 ZINC000003875977    0.3400
21     N21     0.0821   -2.7199   -0.0127 N.ar     1 ZINC000003875977   -0.5600
22     C22     1.1808   -1.9904   -0.0135 C.ar     1 ZINC000003875977    0.5700
23     F23     2.3779   -2.6165   -0.0221 F        1 ZINC000003875977   -0.0700
24     N24     1.1533   -0.6679   -0.0125 N.ar     1 ZINC000003875977   -0.6000
25     H25     0.8167    1.8759    0.0043 H        1 ZINC000003875977    0.4100
26     H26    -0.8632    1.8531    0.0162 H        1 ZINC000003875977    0.4200
27     H27    -4.3049   -1.5356    0.0143 H        1 ZINC000003875977    0.2300
28     H28    -6.5595   -6.1488    0.7569 H        1 ZINC000003875977    0.0700
29     H29    -6.3684   -4.3898    0.9517 H        1 ZINC000003875977    0.0600
30     H30    -7.8650   -4.9306   -0.8297 H        1 ZINC000003875977    0.3900
31     H31    -3.8531   -7.7055    1.0006 H        1 ZINC000003875977    0.3900
32     H32    -1.6771   -5.4760    2.7414 H        1 ZINC000003875977    0.3900
@<TRIPOS>BOND
1     1     2     1
2     1     25    1
3     1     26    1
4     2     24    ar
5     2     3     ar
6     3     20    ar
7     3     4     1
8     4     5     2
9     5     6     1
10    5     27    1
11    6     7     1
12    6     20    1
13    7     8     1
14    7     17    1
15    7     9     1
16    9     10    1
17    10    11    1
18    10    12    1
19    10    14    1
20    12    13    1
21    12    28    1
22    12    29    1
23    13    30    1
24    14    15    1
25    14    16    1
26    14    17    1
27    16    31    1
28    17    18    1
29    17    19    1
30    19    32    1
31    20    21    ar
32    21    22    ar
33    22    23    1
34    22    24    ar
@<TRIPOS>SUBSTRUCTURE
1   ZINC000003875977 1     RESIDUE    1   A     ZIN   1
@<TRIPOS>MOLECULE
ZINC000003881579
  34   35    0    0    0
SMALL
USER_CHARGES
NO_NAME
@<TRIPOS>ATOM
    1 O1        0.0021    -0.0041     0.0020 O.co2  1 <0>      -0.7000
    2 C2       -0.0145     1.2150     0.0087 C.2    1 <0>       0.5100
    3 O3        1.0330     1.8389     0.0021 O.co2  1 <0>      -0.6900
    4 C4       -1.3296     1.9507     0.0190 C.3    1 <0>      -0.1700
    5 H5       -2.1361     1.2993     0.3559 H      1 <0>       0.0800
    6 C6       -1.6428     2.5438    -1.3743 C.3    1 <0>      -0.1300
    7 C7       -2.3016     3.8718    -1.0727 C.2    1 <0>       0.5200
    8 O8       -2.9476     4.5228    -1.8662 O.2    1 <0>      -0.5500
    9 N9       -2.0672     4.2250     0.2029 N.am   1 <0>      -0.6200
   10 C10      -2.5684     5.4523     0.8263 C.3    1 <0>       0.1100
   11 C11      -3.9369     5.1829     1.4551 C.3    1 <0>       0.1100
   12 N12      -4.4381     6.4102     2.0784 N.am   1 <0>      -0.6200
   13 C13      -4.1778     6.7984     3.4696 C.3    1 <0>       0.1200
   14 C14      -4.5075     8.3057     3.5456 C.3    1 <0>      -0.1700
   15 H15      -3.6171     8.9092     3.3691 H      1 <0>       0.0800
   16 C16      -5.1380     8.6538     4.8693 C.2    1 <0>       0.5100
   17 O17      -4.8336     9.6896     5.4359 O.co2  1 <0>      -0.7000
   18 O18      -5.9526     7.8997     5.3737 O.co2  1 <0>      -0.6900
   19 C19      -5.5220     8.4651     2.3896 C.3    1 <0>      -0.1300
   20 C20      -5.1908     7.3283     1.4480 C.2    1 <0>       0.5200
   21 O21      -5.5571     7.2527     0.2943 O.2    1 <0>      -0.5500
   22 C22      -1.2449     3.2225     0.8918 C.3    1 <0>       0.1200
   23 H23      -0.7236     2.6938    -1.9405 H      1 <0>       0.1000
   24 H24      -2.3266     1.8940    -1.9205 H      1 <0>       0.0900
   25 H25      -1.8716     5.7784     1.5984 H      1 <0>       0.0800
   26 H26      -2.6632     6.2315     0.0699 H      1 <0>       0.0800
   27 H27      -4.6337     4.8568     0.6829 H      1 <0>       0.0800
   28 H28      -3.8421     4.4037     2.2115 H      1 <0>       0.0800
   29 H29      -4.8231     6.2366     4.1451 H      1 <0>       0.0900
   30 H30      -3.1304     6.6284     3.7190 H      1 <0>       0.0700
   31 H31      -6.5423     8.3722     2.7618 H      1 <0>       0.1000
   32 H32      -5.3832     9.4237     1.8896 H      1 <0>       0.0900
   33 H33      -1.6447     3.0258     1.8866 H      1 <0>       0.0700
   34 H34      -0.2122     3.5642     0.9603 H      1 <0>       0.0900
@<TRIPOS>BOND
   1    1    2 ar
   2    2    3 ar
   3    2    4 1
   4    4    5 1
   5    4   22 1
   6    4    6 1
   7    6    7 1
   8    6   23 1
   9    6   24 1
  10    7    8 2
  11    7    9 am
  12    9   10 1
  13    9   22 1
  14   10   11 1
  15   10   25 1
  16   10   26 1
  17   11   12 1
  18   11   27 1
  19   11   28 1
  20   12   20 am
  21   12   13 1
  22   13   14 1
  23   13   29 1
  24   13   30 1
  25   14   15 1
  26   14   16 1
  27   14   19 1
  28   16   17 ar
  29   16   18 ar
  30   19   20 1
  31   19   31 1
  32   19   32 1
  33   20   21 2
  34   22   33 1
  35   22   34 1
@<TRIPOS>MOLECULE
ZINC000003882035
30    32    1     0     0
SMALL
USER_CHARGES
@<TRIPOS>ATOM
1      O1      0.0021   -0.0041    0.0020 O.2      1 ZINC000003882035   -0.5100
2      C2     -0.0145    1.2148    0.0087 C.2      1 ZINC000003882035    0.5700
3      N3     -1.1834    1.8932    0.0292 N.am     1 ZINC000003882035   -0.6400
4      C4     -1.1897    3.2501    0.0360 C.2      1 ZINC000003882035    0.3900
5      N5     -0.0897    3.9495    0.0233 N.2      1 ZINC000003882035   -0.5200
6      C6      1.1117    3.3553    0.0032 C.2      1 ZINC000003882035    0.2500
7      C7      1.1915    1.9593    0.0012 C.2      1 ZINC000003882035   -0.1000
8      N8      2.5042    1.6313   -0.0214 N.2      1 ZINC000003882035   -0.4300
9      C9      3.2196    2.7189   -0.0331 C.2      1 ZINC000003882035    0.2400
10     N10     2.4020    3.8092   -0.0141 N.pl3    1 ZINC000003882035   -0.4500
11     C11     2.8271    5.2112   -0.0197 C.3      1 ZINC000003882035    0.3000
12     H12     2.1311    5.8157   -0.6012 H        1 ZINC000003882035    0.1200
13     C13     2.9285    5.7481    1.4252 C.3      1 ZINC000003882035   -0.2000
14     C14     4.1600    6.6808    1.3936 C.3      1 ZINC000003882035    0.0800
15     H15     3.8717    7.7025    1.6409 H        1 ZINC000003882035    0.0900
16     O16     5.1654    6.2134    2.2951 O.3      1 ZINC000003882035   -0.5500
17     C17     4.6569    6.5970   -0.0667 C.3      1 ZINC000003882035    0.0900
18     H18     4.2430    7.4152   -0.6559 H        1 ZINC000003882035    0.1000
19     C19     6.1859    6.6299   -0.1117 C.3      1 ZINC000003882035    0.0900
20     O20     6.6216    6.6689   -1.4721 O.3      1 ZINC000003882035   -0.5700
21     O21     4.1636    5.3291   -0.5544 O.3      1 ZINC000003882035   -0.3500
22     H22    -2.0228    1.4072    0.0388 H        1 ZINC000003882035    0.4300
23     H23    -2.1374    3.7678    0.0521 H        1 ZINC000003882035    0.2200
24     H24     4.2990    2.7523   -0.0515 H        1 ZINC000003882035    0.2300
25     H25     2.0315    6.3087    1.6882 H        1 ZINC000003882035    0.1000
26     H26     3.0876    4.9292    2.1267 H        1 ZINC000003882035    0.1000
27     H27     4.8840    6.1895    3.2200 H        1 ZINC000003882035    0.3900
28     H28     6.5458    7.5163    0.4106 H        1 ZINC000003882035    0.0700
29     H29     6.5829    5.7372    0.3715 H        1 ZINC000003882035    0.0700
30     H30     7.5827    6.6913   -1.5768 H        1 ZINC000003882035    0.3900
@<TRIPOS>BOND
1     1     2     2
2     2     7     1
3     2     3     am
4     3     4     1
5     3     22    1
6     4     5     2
7     4     23    1
8     5     6     1
9     6     10    1
10    6     7     2
11    7     8     1
12    8     9     2
13    9     10    1
14    9     24    1
15    10    11    1
16    11    12    1
17    11    21    1
18    11    13    1
19    13    14    1
20    13    25    1
21    13    26    1
22    14    15    1
23    14    16    1
24    14    17    1
25    16    27    1
26    17    18    1
27    17    19    1
28    17    21    1
29    19    20    1
30    19    28    1
31    19    29    1
32    20    30    1
@<TRIPOS>SUBSTRUCTURE
1   ZINC000003882035 1     RESIDUE    1   A     ZIN   1
@<TRIPOS>MOLECULE
ZINC000003978049
  32   34    0    0    0
SMALL
USER_CHARGES
NO_NAME
@<TRIPOS>ATOM
    1 N1       -0.0167     1.3797     0.0096 N.pl3  1 <0>      -0.8200
    2 C2        0.0021    -0.0041     0.0020 C.ar   1 <0>       0.5100
    3 C3       -1.1953    -0.7393     0.0036 C.ar   1 <0>      -0.1100
    4 N4       -2.5111    -0.4171     0.0123 N.2    1 <0>      -0.4600
    5 C5       -3.2237    -1.5060     0.0097 C.2    1 <0>       0.2700
    6 N6       -2.4068    -2.5973    -0.0008 N.pl3  1 <0>      -0.4700
    7 C7       -2.8327    -3.9990    -0.0071 C.3    1 <0>       0.3200
    8 H8       -2.1471    -4.5918    -0.6126 H      1 <0>       0.1200
    9 O9       -4.1656    -4.1024    -0.5352 O.3    1 <0>      -0.3400
   10 C10      -4.8155    -5.1823     0.1692 C.3    1 <0>       0.0500
   11 H11      -4.4943    -6.1462    -0.2256 H      1 <0>       0.1000
   12 C12      -6.3367    -5.0453     0.0800 C.3    1 <0>       0.0800
   13 O13      -6.7530    -5.2292    -1.2746 O.3    1 <0>      -0.5600
   14 C14      -4.3326    -5.0028     1.6310 C.3    1 <0>       0.0500
   15 H15      -4.3741    -5.9475     2.1731 H      1 <0>       0.1000
   16 O16      -5.0978    -3.9991     2.3012 O.3    1 <0>      -0.5500
   17 C17      -2.8639    -4.5436     1.4341 C.3    1 <0>       0.0800
   18 H18      -2.6119    -3.7563     2.1446 H      1 <0>       0.0900
   19 O19      -1.9706    -5.6497     1.5774 O.3    1 <0>      -0.5400
   20 C20      -1.1125    -2.1421    -0.0049 C.ar   1 <0>       0.3100
   21 N21       0.0849    -2.7183    -0.0145 N.ar   1 <0>      -0.5500
   22 C22       1.1806    -1.9886    -0.0159 C.ar   1 <0>       0.3600
   23 N23       1.1531    -0.6685    -0.0125 N.ar   1 <0>      -0.5900
   24 H24       0.8167     1.8761     0.0043 H      1 <0>       0.4100
   25 H25      -0.8632     1.8532     0.0162 H      1 <0>       0.4200
   26 H26      -4.3032    -1.5401     0.0154 H      1 <0>       0.2200
   27 H27      -6.8070    -5.8001     0.7102 H      1 <0>       0.0700
   28 H28      -6.6327    -4.0528     0.4195 H      1 <0>       0.0600
   29 H29      -7.7082    -5.1557    -1.4060 H      1 <0>       0.3900
   30 H30      -6.0407    -4.2027     2.3683 H      1 <0>       0.3900
   31 H31      -1.9959    -6.0652     2.4502 H      1 <0>       0.3900
   32 H32       2.1380    -2.4885    -0.0238 H      1 <0>       0.2100
@<TRIPOS>BOND
   1    1    2 1
   2    1   24 1
   3    1   25 1
   4    2   23 ar
   5    2    3 ar
   6    3   20 ar
   7    3    4 1
   8    4    5 2
   9    5    6 1
  10    5   26 1
  11    6    7 1
  12    6   20 1
  13    7    8 1
  14    7   17 1
  15    7    9 1
  16    9   10 1
  17   10   11 1
  18   10   12 1
  19   10   14 1
  20   12   13 1
  21   12   27 1
  22   12   28 1
  23   13   29 1
  24   14   15 1
  25   14   16 1
  26   14   17 1
  27   16   30 1
  28   17   18 1
  29   17   19 1
  30   19   31 1
  31   20   21 ar
  32   21   22 ar
  33   22   23 ar
  34   22   32 1
@<TRIPOS>MOLECULE
ZINC000004015531
31    33    1     0     0
SMALL
USER_CHARGES
@<TRIPOS>ATOM
1      O1      0.0026   -0.0041    0.0355 O.2      1 ZINC000004015531   -0.5000
2      C2     -0.0135    1.2147    0.0527 C.2      1 ZINC000004015531    0.5700
3      N3     -1.1814    1.8929    0.1102 N.am     1 ZINC000004015531   -0.6400
4      C4     -1.1872    3.2497    0.1283 C.2      1 ZINC000004015531    0.4000
5      N5     -0.0877    3.9491    0.0916 N.2      1 ZINC000004015531   -0.5200
6      C6      1.1126    3.3551    0.0343 C.2      1 ZINC000004015531    0.2600
7      C7      1.1919    1.9592    0.0187 C.2      1 ZINC000004015531   -0.1000
8      N8      2.5035    1.6314   -0.0419 N.2      1 ZINC000004015531   -0.4200
9      C9      3.2186    2.7191   -0.0640 C.2      1 ZINC000004015531    0.2200
10     N10     2.4020    3.8092   -0.0141 N.pl3    1 ZINC000004015531   -0.4600
11     C11     2.8271    5.2112   -0.0197 C.3      1 ZINC000004015531    0.3000
12     H12     2.1824    5.7998   -0.6723 H        1 ZINC000004015531    0.1600
13     O13     4.2036    5.3174   -0.4439 O.3      1 ZINC000004015531   -0.3200
14     C14     4.9874    4.9464    0.7111 C.3      1 ZINC000004015531    0.0200
15     H15     5.0024    3.8628    0.8273 H        1 ZINC000004015531    0.0900
16     C16     6.4129    5.4872    0.5834 C.3      1 ZINC000004015531    0.0800
17     O17     7.0755    4.8323   -0.5002 O.3      1 ZINC000004015531   -0.5600
18     C18     4.2647    5.6056    1.9068 C.3      1 ZINC000004015531    0.0500
19     H19     4.2956    4.9525    2.7789 H        1 ZINC000004015531    0.0900
20     O20     4.8523    6.8723    2.2104 O.3      1 ZINC000004015531   -0.5400
21     C21     2.8080    5.7846    1.4146 C.3      1 ZINC000004015531    0.0900
22     H22     2.1202    5.2197    2.0437 H        1 ZINC000004015531    0.0900
23     O23     2.4506    7.1681    1.4009 O.3      1 ZINC000004015531   -0.5300
24     H24    -2.0203    1.4068    0.1384 H        1 ZINC000004015531    0.4300
25     H25    -2.1340    3.7673    0.1741 H        1 ZINC000004015531    0.2200
26     H26     4.2970    2.7526   -0.1113 H        1 ZINC000004015531    0.2300
27     H27     6.3789    6.5599    0.3934 H        1 ZINC000004015531    0.0700
28     H28     6.9571    5.2991    1.5089 H        1 ZINC000004015531    0.0700
29     H29     7.9861    5.1263   -0.6398 H        1 ZINC000004015531    0.3900
30     H30     5.7831    6.8226    2.4676 H        1 ZINC000004015531    0.3900
31     H31     2.4827    7.5913    2.2698 H        1 ZINC000004015531    0.4000
@<TRIPOS>BOND
1     1     2     2
2     2     7     1
3     2     3     am
4     3     4     1
5     3     24    1
6     4     5     2
7     4     25    1
8     5     6     1
9     6     10    1
10    6     7     2
11    7     8     1
12    8     9     2
13    9     10    1
14    9     26    1
15    10    11    1
16    11    12    1
17    11    21    1
18    11    13    1
19    13    14    1
20    14    15    1
21    14    16    1
22    14    18    1
23    16    17    1
24    16    27    1
25    16    28    1
26    17    29    1
27    18    19    1
28    18    20    1
29    18    21    1
30    20    30    1
31    21    22    1
32    21    23    1
33    23    31    1
@<TRIPOS>SUBSTRUCTURE
1   ZINC000004015531 1     RESIDUE    1   A     ZIN   1
@<TRIPOS>MOLECULE
ZINC000004095887
34    35    1     0     0
SMALL
USER_CHARGES
@<TRIPOS>ATOM
1      O1     -0.0173    1.4248    0.0099 O.3      1 ZINC000004095887   -0.5700
2      C2      0.0021   -0.0041    0.0020 C.3      1 ZINC000004095887    0.0900
3      C3     -1.4333   -0.5336    0.0129 C.3      1 ZINC000004095887    0.1100
4      H4     -1.9703   -0.1110    0.8621 H        1 ZINC000004095887    0.0900
5      O5     -2.0889   -0.1583   -1.2001 O.3      1 ZINC000004095887   -0.3700
6      C6     -3.4509   -0.5831   -1.2828 C.3      1 ZINC000004095887    0.2300
7      H7     -4.0143   -0.1613   -0.4505 H        1 ZINC000004095887    0.0700
8      O8     -4.0158   -0.1349   -2.5165 O.3      1 ZINC000004095887   -0.3000
9      C9     -4.1337    1.2079   -2.6894 C.ar     1 ZINC000004095887    0.1200
10     C10    -3.7091    2.0764   -1.6944 C.ar     1 ZINC000004095887   -0.1800
11     C11    -3.8297    3.4410   -1.8727 C.ar     1 ZINC000004095887   -0.0800
12     C12    -4.3734    3.9413   -3.0414 C.ar     1 ZINC000004095887   -0.1500
13     C13    -4.7978    3.0777   -4.0343 C.ar     1 ZINC000004095887   -0.0900
14     C14    -4.6737    1.7125   -3.8634 C.ar     1 ZINC000004095887   -0.1500
15     C15    -3.5121   -2.1114   -1.2183 C.3      1 ZINC000004095887    0.0600
16     H16    -2.9830   -2.5335   -2.0727 H        1 ZINC000004095887    0.0900
17     O17    -4.8763   -2.5362   -1.2440 O.3      1 ZINC000004095887   -0.5600
18     C18    -2.8509   -2.5868    0.0790 C.3      1 ZINC000004095887    0.0900
19     H19    -3.4093   -2.2053    0.9339 H        1 ZINC000004095887    0.0800
20     O20    -2.8398   -4.0154    0.1143 O.3      1 ZINC000004095887   -0.5500
21     C21    -1.4135   -2.0600    0.1297 C.3      1 ZINC000004095887    0.0900
22     H22    -0.9534   -2.3472    1.0752 H        1 ZINC000004095887    0.0900
23     O23    -0.6637   -2.6130   -0.9538 O.3      1 ZINC000004095887   -0.5500
24     H24     0.8606    1.8301    0.0037 H        1 ZINC000004095887    0.3900
25     H25     0.5123   -0.3556   -0.8948 H        1 ZINC000004095887    0.0700
26     H26     0.5293   -0.3651    0.8851 H        1 ZINC000004095887    0.0700
27     H27    -3.2850    1.6861   -0.7811 H        1 ZINC000004095887    0.1300
28     H28    -3.4993    4.1176   -1.0985 H        1 ZINC000004095887    0.1300
29     H29    -4.4672    5.0084   -3.1788 H        1 ZINC000004095887    0.1200
30     H30    -5.2225    3.4710   -4.9461 H        1 ZINC000004095887    0.1300
31     H31    -5.0053    1.0384   -4.6393 H        1 ZINC000004095887    0.1300
32     H32    -5.3578   -2.2651   -2.0376 H        1 ZINC000004095887    0.3900
33     H33    -3.7190   -4.4165    0.0792 H        1 ZINC000004095887    0.4000
34     H34    -0.6136   -3.5787   -0.9449 H        1 ZINC000004095887    0.3900
@<TRIPOS>BOND
1     1     2     1
2     1     24    1
3     2     3     1
4     2     25    1
5     2     26    1
6     3     4     1
7     3     21    1
8     3     5     1
9     5     6     1
10    6     7     1
11    6     8     1
12    6     15    1
13    8     9     1
14    9     14    ar
15    9     10    ar
16    10    11    ar
17    10    27    1
18    11    12    ar
19    11    28    1
20    12    13    ar
21    12    29    1
22    13    14    ar
23    13    30    1
24    14    31    1
25    15    16    1
26    15    17    1
27    15    18    1
28    17    32    1
29    18    19    1
30    18    20    1
31    18    21    1
32    20    33    1
33    21    22    1
34    21    23    1
35    23    34    1
@<TRIPOS>SUBSTRUCTURE
1   ZINC000004095887 1     RESIDUE    1   A     ZIN   1
@<TRIPOS>MOLECULE
ZINC000004096022
34    35    1     0     0
SMALL
USER_CHARGES
@<TRIPOS>ATOM
1      O1     -0.0173    1.4248    0.0099 O.3      1 ZINC000004096022   -0.5700
2      C2      0.0021   -0.0041    0.0020 C.3      1 ZINC000004096022    0.0900
3      C3     -1.4333   -0.5336    0.0129 C.3      1 ZINC000004096022    0.1100
4      H4     -1.9703   -0.1110    0.8621 H        1 ZINC000004096022    0.0800
5      O5     -2.0889   -0.1583   -1.2001 O.3      1 ZINC000004096022   -0.3700
6      C6     -3.4509   -0.5831   -1.2828 C.3      1 ZINC000004096022    0.2300
7      H7     -4.0143   -0.1613   -0.4505 H        1 ZINC000004096022    0.0800
8      O8     -4.0158   -0.1349   -2.5165 O.3      1 ZINC000004096022   -0.3000
9      C9     -4.1337    1.2079   -2.6894 C.ar     1 ZINC000004096022    0.1200
10     C10    -3.7091    2.0764   -1.6944 C.ar     1 ZINC000004096022   -0.1800
11     C11    -3.8297    3.4410   -1.8727 C.ar     1 ZINC000004096022   -0.0800
12     C12    -4.3734    3.9413   -3.0414 C.ar     1 ZINC000004096022   -0.1500
13     C13    -4.7978    3.0777   -4.0343 C.ar     1 ZINC000004096022   -0.0900
14     C14    -4.6737    1.7125   -3.8634 C.ar     1 ZINC000004096022   -0.1500
15     C15    -3.5121   -2.1114   -1.2183 C.3      1 ZINC000004096022    0.0600
16     H16    -2.9830   -2.5335   -2.0727 H        1 ZINC000004096022    0.0900
17     O17    -4.8763   -2.5362   -1.2440 O.3      1 ZINC000004096022   -0.5500
18     C18    -2.8509   -2.5868    0.0790 C.3      1 ZINC000004096022    0.0900
19     H19    -3.4093   -2.2053    0.9339 H        1 ZINC000004096022    0.0800
20     O20    -2.8398   -4.0154    0.1143 O.3      1 ZINC000004096022   -0.5500
21     C21    -1.4135   -2.0600    0.1297 C.3      1 ZINC000004096022    0.0900
22     H22    -0.8419   -2.4810   -0.6974 H        1 ZINC000004096022    0.0800
23     O23    -0.8098   -2.4378    1.3686 O.3      1 ZINC000004096022   -0.5500
24     H24     0.8606    1.8301    0.0037 H        1 ZINC000004096022    0.3900
25     H25     0.5123   -0.3556   -0.8948 H        1 ZINC000004096022    0.0600
26     H26     0.5293   -0.3651    0.8851 H        1 ZINC000004096022    0.0800
27     H27    -3.2850    1.6861   -0.7811 H        1 ZINC000004096022    0.1300
28     H28    -3.4993    4.1176   -1.0985 H        1 ZINC000004096022    0.1300
29     H29    -4.4672    5.0084   -3.1788 H        1 ZINC000004096022    0.1200
30     H30    -5.2225    3.4710   -4.9461 H        1 ZINC000004096022    0.1300
31     H31    -5.0053    1.0384   -4.6393 H        1 ZINC000004096022    0.1300
32     H32    -5.3578   -2.2651   -2.0376 H        1 ZINC000004096022    0.4000
33     H33    -3.7190   -4.4165    0.0792 H        1 ZINC000004096022    0.4000
34     H34    -0.7681   -3.3935    1.5105 H        1 ZINC000004096022    0.4000
@<TRIPOS>BOND
1     1     2     1
2     1     24    1
3     2     3     1
4     2     25    1
5     2     26    1
6     3     4     1
7     3     21    1
8     3     5     1
9     5     6     1
10    6     7     1
11    6     8     1
12    6     15    1
13    8     9     1
14    9     14    ar
15    9     10    ar
16    10    11    ar
17    10    27    1
18    11    12    ar
19    11    28    1
20    12    13    ar
21    12    29    1
22    13    14    ar
23    13    30    1
24    14    31    1
25    15    16    1
26    15    17    1
27    15    18    1
28    17    32    1
29    18    19    1
30    18    20    1
31    18    21    1
32    20    33    1
33    21    22    1
34    21    23    1
35    23    34    1
@<TRIPOS>SUBSTRUCTURE
1   ZINC000004096022 1     RESIDUE    1   A     ZIN   1
@<TRIPOS>MOLECULE
ZINC000004096465
36    36    1     0     0
SMALL
USER_CHARGES
@<TRIPOS>ATOM
1      C1     -0.0184    1.5028    0.0103 C.3      1 ZINC000004096465   -0.1700
2      C2      0.0021   -0.0041    0.0020 C.2      1 ZINC000004096465    0.5100
3      O3      0.0203   -0.6160    1.0489 O.2      1 ZINC000004096465   -0.5200
4      N4      0.0001   -0.6716   -1.1688 N.am     1 ZINC000004096465   -0.7200
5      C5      0.0199   -2.1365   -1.1769 C.3      1 ZINC000004096465    0.1300
6      H6     -0.5556   -2.5164   -0.3328 H        1 ZINC000004096465    0.1100
7      C7     -0.5828   -2.6550   -2.4895 C.3      1 ZINC000004096465    0.0500
8      H8      0.0296   -2.3274   -3.3296 H        1 ZINC000004096465    0.0800
9      C9     -2.0070   -2.1193   -2.6499 C.3      1 ZINC000004096465    0.1000
10     H10    -1.9774   -1.0349   -2.7569 H        1 ZINC000004096465    0.1100
11     O11    -2.7780   -2.4633   -1.4970 O.3      1 ZINC000004096465   -0.5500
12     C12    -2.6472   -2.7373   -3.8946 C.3      1 ZINC000004096465    0.0800
13     H13    -2.6768   -3.8216   -3.7876 H        1 ZINC000004096465    0.1200
14     O14    -1.8761   -2.3932   -5.0475 O.3      1 ZINC000004096465   -0.5400
15     C15    -4.0713   -2.2015   -4.0550 C.3      1 ZINC000004096465    0.0500
16     O16    -4.7094   -2.8648   -5.1482 O.3      1 ZINC000004096465   -0.5600
17     O17    -0.6075   -4.0842   -2.4394 O.3      1 ZINC000004096465   -0.2900
18     C18     0.5240   -4.7175   -2.0449 C.2      1 ZINC000004096465    0.0600
19     C19     0.6611   -6.1539   -2.3325 C.2      1 ZINC000004096465    0.5300
20     O20     1.6710   -6.7530   -1.9886 O.co2    1 ZINC000004096465   -0.6700
21     O21    -0.2348   -6.7494   -2.9154 O.co2    1 ZINC000004096465   -0.6600
22     C22     1.5134   -4.1016   -1.4120 C.2      1 ZINC000004096465   -0.3000
23     C23     1.4661   -2.6341   -1.0822 C.3      1 ZINC000004096465    0.1400
24     H24     2.0861   -2.0827   -1.7890 H        1 ZINC000004096465    0.0500
25     O25     1.9569   -2.4278    0.2440 O.3      1 ZINC000004096465   -0.5400
26     H26     1.0042    1.8801    0.0026 H        1 ZINC000004096465    0.0900
27     H27    -0.5455    1.8639   -0.8728 H        1 ZINC000004096465    0.0800
28     H28    -0.5286    1.8543    0.9071 H        1 ZINC000004096465    0.0900
29     H29    -0.0145   -0.1822   -2.0061 H        1 ZINC000004096465    0.3900
30     H30    -2.8471   -3.4149   -1.3397 H        1 ZINC000004096465    0.3900
31     H31    -1.8070   -1.4416   -5.2048 H        1 ZINC000004096465    0.3600
32     H32    -4.6340   -2.3857   -3.1399 H        1 ZINC000004096465    0.0600
33     H33    -4.0365   -1.1298   -4.2506 H        1 ZINC000004096465    0.0400
34     H34    -5.6177   -2.5743   -5.3084 H        1 ZINC000004096465    0.3800
35     H35     2.3827   -4.6732   -1.1222 H        1 ZINC000004096465    0.1400
36     H36     2.8690   -2.7206    0.3758 H        1 ZINC000004096465    0.3700
@<TRIPOS>BOND
1     1     2     1
2     1     26    1
3     1     27    1
4     1     28    1
5     2     3     2
6     2     4     am
7     4     5     1
8     4     29    1
9     5     6     1
10    5     23    1
11    5     7     1
12    7     8     1
13    7     9     1
14    7     17    1
15    9     10    1
16    9     11    1
17    9     12    1
18    11    30    1
19    12    13    1
20    12    14    1
21    12    15    1
22    14    31    1
23    15    16    1
24    15    32    1
25    15    33    1
26    16    34    1
27    17    18    1
28    18    19    1
29    18    22    2
30    19    20    ar
31    19    21    ar
32    22    23    1
33    22    35    1
34    23    24    1
35    23    25    1
36    25    36    1
@<TRIPOS>SUBSTRUCTURE
1   ZINC000004096465 1     RESIDUE    1   A     ZIN   1
@<TRIPOS>MOLECULE
ZINC000004207048
36    37    1     0     0
SMALL
USER_CHARGES
@<TRIPOS>ATOM
1      N1     -0.0116    1.0048    0.0076 N.4      1 ZINC000004207048   -0.6300
2      H2      0.0021   -0.0041    0.0020 H        1 ZINC000004207048    0.4400
3      H3      0.9350    1.3541    0.0004 H        1 ZINC000004207048    0.4400
4      H4     -0.4996    1.3391   -0.8099 H        1 ZINC000004207048    0.4400
5      C5     -0.6992    1.4786    1.2162 C.3      1 ZINC000004207048   -0.0400
6      C6     -2.1346    0.9490    1.2270 C.3      1 ZINC000004207048    0.0600
7      H7     -2.6346    1.2357    0.3019 H        1 ZINC000004207048    0.1300
8      O8     -2.1159   -0.4757    1.3366 O.3      1 ZINC000004207048   -0.5300
9      C9     -2.8881    1.5423    2.4191 C.3      1 ZINC000004207048    0.0500
10     H10    -2.3880    1.2556    3.3442 H        1 ZINC000004207048    0.1200
11     O11    -2.9068    2.9670    2.3095 O.3      1 ZINC000004207048   -0.5400
12     C12    -4.3235    1.0128    2.4300 C.3      1 ZINC000004207048    0.1800
13     H13    -4.8235    1.2995    1.5049 H        1 ZINC000004207048    0.1300
14     O14    -4.3048   -0.4119    2.5396 O.3      1 ZINC000004207048   -0.5300
15     C15    -5.0657    1.5972    3.6041 C.2      1 ZINC000004207048   -0.0400
16     N16    -4.7107    1.5497    4.8686 N.2      1 ZINC000004207048   -0.2700
17     N17    -5.5992    2.1599    5.5700 N.pl3    1 ZINC000004207048   -0.0900
18     C18    -5.5499    2.3085    6.9633 C.ar     1 ZINC000004207048    0.1300
19     C19    -4.4846    1.7824    7.6816 C.ar     1 ZINC000004207048   -0.1000
20     C20    -4.4386    1.9308    9.0540 C.ar     1 ZINC000004207048   -0.1000
21     C21    -5.4523    2.6021    9.7127 C.ar     1 ZINC000004207048   -0.1000
22     C22    -6.5148    3.1268    9.0000 C.ar     1 ZINC000004207048   -0.1000
23     C23    -6.5633    2.9870    7.6267 C.ar     1 ZINC000004207048   -0.1000
24     N24    -6.5389    2.6156    4.8196 N.2      1 ZINC000004207048   -0.2800
25     C25    -6.2694    2.3061    3.5712 C.2      1 ZINC000004207048    0.0000
26     H26    -0.1720    1.1175    2.0992 H        1 ZINC000004207048    0.1400
27     H27    -0.7140    2.5685    1.2222 H        1 ZINC000004207048    0.1500
28     H28    -1.6849   -0.8029    2.1381 H        1 ZINC000004207048    0.3900
29     H29    -3.3377    3.2942    1.5081 H        1 ZINC000004207048    0.3800
30     H30    -3.8738   -0.7391    3.3410 H        1 ZINC000004207048    0.3800
31     H31    -3.6930    1.2573    7.1678 H        1 ZINC000004207048    0.1400
32     H32    -3.6102    1.5217    9.6134 H        1 ZINC000004207048    0.1400
33     H33    -5.4143    2.7166   10.7859 H        1 ZINC000004207048    0.1400
34     H34    -7.3052    3.6504    9.5172 H        1 ZINC000004207048    0.1400
35     H35    -7.3932    3.3974    7.0706 H        1 ZINC000004207048    0.1400
36     H36    -6.8609    2.5441    2.6994 H        1 ZINC000004207048    0.2000
@<TRIPOS>BOND
1     1     2     1
2     1     3     1
3     1     4     1
4     1     5     1
5     5     6     1
6     5     26    1
7     5     27    1
8     6     7     1
9     6     8     1
10    6     9     1
11    8     28    1
12    9     10    1
13    9     11    1
14    9     12    1
15    11    29    1
16    12    13    1
17    12    14    1
18    12    15    1
19    14    30    1
20    15    25    1
21    15    16    2
22    16    17    1
23    17    18    1
24    17    24    1
25    18    23    ar
26    18    19    ar
27    19    20    ar
28    19    31    1
29    20    21    ar
30    20    32    1
31    21    22    ar
32    21    33    1
33    22    23    ar
34    22    34    1
35    23    35    1
36    24    25    2
37    25    36    1
@<TRIPOS>SUBSTRUCTURE
1   ZINC000004207048 1     RESIDUE    1   A     ZIN   1
@<TRIPOS>MOLECULE
ZINC000004207049
36    37    1     0     0
SMALL
USER_CHARGES
@<TRIPOS>ATOM
1      N1     -0.0116    1.0048    0.0076 N.4      1 ZINC000004207049   -0.6300
2      H2      0.0021   -0.0041    0.0020 H        1 ZINC000004207049    0.4400
3      H3      0.9350    1.3541    0.0004 H        1 ZINC000004207049    0.4400
4      H4     -0.4996    1.3391   -0.8099 H        1 ZINC000004207049    0.4400
5      C5     -0.6992    1.4786    1.2162 C.3      1 ZINC000004207049   -0.0400
6      C6     -2.1346    0.9490    1.2270 C.3      1 ZINC000004207049    0.0600
7      H7     -2.6346    1.2357    0.3019 H        1 ZINC000004207049    0.1300
8      O8     -2.1159   -0.4757    1.3366 O.3      1 ZINC000004207049   -0.5400
9      C9     -2.8881    1.5423    2.4191 C.3      1 ZINC000004207049    0.0600
10     H10    -2.3880    1.2556    3.3442 H        1 ZINC000004207049    0.1300
11     O11    -2.9068    2.9670    2.3095 O.3      1 ZINC000004207049   -0.5400
12     C12    -4.3235    1.0128    2.4300 C.3      1 ZINC000004207049    0.1800
13     H13    -4.3124   -0.0634    2.6026 H        1 ZINC000004207049    0.1400
14     O14    -4.9419    1.2870    1.1713 O.3      1 ZINC000004207049   -0.5400
15     C15    -5.1004    1.6899    3.5295 C.2      1 ZINC000004207049   -0.0400
16     N16    -4.7838    1.7466    4.8037 N.2      1 ZINC000004207049   -0.2700
17     N17    -5.6927    2.4104    5.4257 N.pl3    1 ZINC000004207049   -0.0900
18     C18    -5.6854    2.6725    6.8031 C.ar     1 ZINC000004207049    0.1300
19     C19    -4.6426    2.2088    7.5938 C.ar     1 ZINC000004207049   -0.1000
20     C20    -4.6380    2.4690    8.9503 C.ar     1 ZINC000004207049   -0.1000
21     C21    -5.6707    3.1901    9.5210 C.ar     1 ZINC000004207049   -0.1000
22     C22    -6.7108    3.6528    8.7361 C.ar     1 ZINC000004207049   -0.1000
23     C23    -6.7180    3.4011    7.3780 C.ar     1 ZINC000004207049   -0.1000
24     N24    -6.6091    2.8015    4.6127 N.2      1 ZINC000004207049   -0.2800
25     C25    -6.3022    2.3914    3.4024 C.2      1 ZINC000004207049    0.0000
26     H26    -0.1720    1.1175    2.0992 H        1 ZINC000004207049    0.1400
27     H27    -0.7140    2.5685    1.2222 H        1 ZINC000004207049    0.1500
28     H28    -1.6849   -0.8029    2.1381 H        1 ZINC000004207049    0.3900
29     H29    -3.3377    3.2942    1.5081 H        1 ZINC000004207049    0.3800
30     H30    -4.9865    2.2277    0.9516 H        1 ZINC000004207049    0.3800
31     H31    -3.8362    1.6450    7.1488 H        1 ZINC000004207049    0.1400
32     H32    -3.8271    2.1086    9.5659 H        1 ZINC000004207049    0.1400
33     H33    -5.6650    3.3920   10.5819 H        1 ZINC000004207049    0.1400
34     H34    -7.5162    4.2154    9.1846 H        1 ZINC000004207049    0.1400
35     H35    -7.5304    3.7631    6.7654 H        1 ZINC000004207049    0.1400
36     H36    -6.8669    2.5563    2.4967 H        1 ZINC000004207049    0.2000
@<TRIPOS>BOND
1     1     2     1
2     1     3     1
3     1     4     1
4     1     5     1
5     5     6     1
6     5     26    1
7     5     27    1
8     6     7     1
9     6     8     1
10    6     9     1
11    8     28    1
12    9     10    1
13    9     11    1
14    9     12    1
15    11    29    1
16    12    13    1
17    12    14    1
18    12    15    1
19    14    30    1
20    15    25    1
21    15    16    2
22    16    17    1
23    17    18    1
24    17    24    1
25    18    23    ar
26    18    19    ar
27    19    20    ar
28    19    31    1
29    20    21    ar
30    20    32    1
31    21    22    ar
32    21    33    1
33    22    23    ar
34    22    34    1
35    23    35    1
36    24    25    2
37    25    36    1
@<TRIPOS>SUBSTRUCTURE
1   ZINC000004207049 1     RESIDUE    1   A     ZIN   1
@<TRIPOS>MOLECULE
ZINC000004207050
36    37    1     0     0
SMALL
USER_CHARGES
@<TRIPOS>ATOM
1      N1     -0.0116    1.0048    0.0076 N.4      1 ZINC000004207050   -0.6300
2      H2      0.0021   -0.0041    0.0020 H        1 ZINC000004207050    0.4400
3      H3      0.9350    1.3541    0.0004 H        1 ZINC000004207050    0.4400
4      H4     -0.4996    1.3391   -0.8099 H        1 ZINC000004207050    0.4400
5      C5     -0.6992    1.4786    1.2162 C.3      1 ZINC000004207050   -0.0400
6      C6     -2.1346    0.9490    1.2270 C.3      1 ZINC000004207050    0.0500
7      H7     -2.6346    1.2357    0.3019 H        1 ZINC000004207050    0.1400
8      O8     -2.1159   -0.4757    1.3366 O.3      1 ZINC000004207050   -0.5300
9      C9     -2.8881    1.5423    2.4191 C.3      1 ZINC000004207050    0.0500
10     H10    -2.9796    2.6209    2.2908 H        1 ZINC000004207050    0.1300
11     O11    -2.1694    1.2652    3.6227 O.3      1 ZINC000004207050   -0.5300
12     C12    -4.2826    0.9185    2.5027 C.3      1 ZINC000004207050    0.1800
13     H13    -4.8616    1.2041    1.6245 H        1 ZINC000004207050    0.1300
14     O14    -4.1655   -0.5047    2.5539 O.3      1 ZINC000004207050   -0.5300
15     C15    -4.9792    1.4102    3.7453 C.2      1 ZINC000004207050   -0.0500
16     N16    -4.5369    1.3414    4.9809 N.2      1 ZINC000004207050   -0.2500
17     N17    -5.4130    1.8659    5.7627 N.pl3    1 ZINC000004207050   -0.0900
18     C18    -5.2788    1.9678    7.1546 C.ar     1 ZINC000004207050    0.1300
19     C19    -4.1358    1.4884    7.7802 C.ar     1 ZINC000004207050   -0.1000
20     C20    -4.0062    1.5906    9.1515 C.ar     1 ZINC000004207050   -0.1000
21     C21    -5.0137    2.1693    9.9013 C.ar     1 ZINC000004207050   -0.1000
22     C22    -6.1535    2.6472    9.2812 C.ar     1 ZINC000004207050   -0.1000
23     C23    -6.2861    2.5535    7.9095 C.ar     1 ZINC000004207050   -0.1000
24     N24    -6.4287    2.2846    5.0943 N.2      1 ZINC000004207050   -0.2800
25     C25    -6.2253    2.0383    3.8195 C.2      1 ZINC000004207050    0.0000
26     H26    -0.1720    1.1175    2.0992 H        1 ZINC000004207050    0.1400
27     H27    -0.7140    2.5685    1.2222 H        1 ZINC000004207050    0.1400
28     H28    -1.6849   -0.8029    2.1381 H        1 ZINC000004207050    0.3800
29     H29    -2.0500    0.3224    3.8013 H        1 ZINC000004207050    0.3700
30     H30    -3.6611   -0.8309    3.3117 H        1 ZINC000004207050    0.3700
31     H31    -3.3489    1.0357    7.1951 H        1 ZINC000004207050    0.1400
32     H32    -3.1173    1.2179    9.6386 H        1 ZINC000004207050    0.1400
33     H33    -4.9103    2.2478   10.9734 H        1 ZINC000004207050    0.1400
34     H34    -6.9389    3.0984    9.8694 H        1 ZINC000004207050    0.1400
35     H35    -7.1764    2.9273    7.4257 H        1 ZINC000004207050    0.1400
36     H36    -6.8886    2.2673    2.9985 H        1 ZINC000004207050    0.2000
@<TRIPOS>BOND
1     1     2     1
2     1     3     1
3     1     4     1
4     1     5     1
5     5     6     1
6     5     26    1
7     5     27    1
8     6     7     1
9     6     8     1
10    6     9     1
11    8     28    1
12    9     10    1
13    9     11    1
14    9     12    1
15    11    29    1
16    12    13    1
17    12    14    1
18    12    15    1
19    14    30    1
20    15    25    1
21    15    16    2
22    16    17    1
23    17    18    1
24    17    24    1
25    18    23    ar
26    18    19    ar
27    19    20    ar
28    19    31    1
29    20    21    ar
30    20    32    1
31    21    22    ar
32    21    33    1
33    22    23    ar
34    22    34    1
35    23    35    1
36    24    25    2
37    25    36    1
@<TRIPOS>SUBSTRUCTURE
1   ZINC000004207050 1     RESIDUE    1   A     ZIN   1
@<TRIPOS>MOLECULE
ZINC000004207052
36    37    1     0     0
SMALL
USER_CHARGES
@<TRIPOS>ATOM
1      N1     -0.0116    1.0048    0.0076 N.4      1 ZINC000004207052   -0.6300
2      H2      0.0021   -0.0041    0.0020 H        1 ZINC000004207052    0.4400
3      H3      0.9350    1.3541    0.0004 H        1 ZINC000004207052    0.4400
4      H4     -0.4996    1.3391   -0.8099 H        1 ZINC000004207052    0.4400
5      C5     -0.6992    1.4786    1.2162 C.3      1 ZINC000004207052   -0.0400
6      C6     -2.1346    0.9490    1.2270 C.3      1 ZINC000004207052    0.0500
7      H7     -2.6346    1.2357    0.3019 H        1 ZINC000004207052    0.1400
8      O8     -2.1159   -0.4757    1.3366 O.3      1 ZINC000004207052   -0.5400
9      C9     -2.8881    1.5423    2.4191 C.3      1 ZINC000004207052    0.0500
10     H10    -2.9796    2.6209    2.2908 H        1 ZINC000004207052    0.1200
11     O11    -2.1694    1.2652    3.6227 O.3      1 ZINC000004207052   -0.5300
12     C12    -4.2826    0.9185    2.5027 C.3      1 ZINC000004207052    0.1800
13     H13    -4.1911   -0.1600    2.6311 H        1 ZINC000004207052    0.1300
14     O14    -5.0014    1.1957    1.2991 O.3      1 ZINC000004207052   -0.5300
15     C15    -5.0248    1.5030    3.6769 C.2      1 ZINC000004207052   -0.0500
16     N16    -4.6267    1.5352    4.9289 N.2      1 ZINC000004207052   -0.2500
17     N17    -5.5319    2.1146    5.6350 N.pl3    1 ZINC000004207052   -0.0900
18     C18    -5.4478    2.3275    7.0183 C.ar     1 ZINC000004207052    0.1300
19     C19    -4.3263    1.9063    7.7200 C.ar     1 ZINC000004207052   -0.1000
20     C20    -4.2462    2.1178    9.0825 C.ar     1 ZINC000004207052   -0.1000
21     C21    -5.2818    2.7479    9.7479 C.ar     1 ZINC000004207052   -0.1000
22     C22    -6.4003    3.1681    9.0518 C.ar     1 ZINC000004207052   -0.1000
23     C23    -6.4834    2.9650    7.6882 C.ar     1 ZINC000004207052   -0.1000
24     N24    -6.5244    2.4727    4.8999 N.2      1 ZINC000004207052   -0.2800
25     C25    -6.2749    2.1272    3.6568 C.2      1 ZINC000004207052    0.0000
26     H26    -0.1720    1.1175    2.0992 H        1 ZINC000004207052    0.1400
27     H27    -0.7140    2.5685    1.2222 H        1 ZINC000004207052    0.1500
28     H28    -1.6849   -0.8029    2.1381 H        1 ZINC000004207052    0.3900
29     H29    -2.0500    0.3224    3.8013 H        1 ZINC000004207052    0.3800
30     H30    -5.1208    2.1385    1.1205 H        1 ZINC000004207052    0.3800
31     H31    -3.5175    1.4134    7.2010 H        1 ZINC000004207052    0.1400
32     H32    -3.3740    1.7904    9.6289 H        1 ZINC000004207052    0.1400
33     H33    -5.2170    2.9119   10.8134 H        1 ZINC000004207052    0.1400
34     H34    -7.2076    3.6597    9.5743 H        1 ZINC000004207052    0.1400
35     H35    -7.3571    3.2937    7.1450 H        1 ZINC000004207052    0.1400
36     H36    -6.9091    2.2863    2.7972 H        1 ZINC000004207052    0.2100
@<TRIPOS>BOND
1     1     2     1
2     1     3     1
3     1     4     1
4     1     5     1
5     5     6     1
6     5     26    1
7     5     27    1
8     6     7     1
9     6     8     1
10    6     9     1
11    8     28    1
12    9     10    1
13    9     11    1
14    9     12    1
15    11    29    1
16    12    13    1
17    12    14    1
18    12    15    1
19    14    30    1
20    15    25    1
21    15    16    2
22    16    17    1
23    17    18    1
24    17    24    1
25    18    23    ar
26    18    19    ar
27    19    20    ar
28    19    31    1
29    20    21    ar
30    20    32    1
31    21    22    ar
32    21    33    1
33    22    23    ar
34    22    34    1
35    23    35    1
36    24    25    2
37    25    36    1
@<TRIPOS>SUBSTRUCTURE
1   ZINC000004207052 1     RESIDUE    1   A     ZIN   1
@<TRIPOS>MOLECULE
ZINC000004216238
  32   34    0    0    0
SMALL
USER_CHARGES
NO_NAME
@<TRIPOS>ATOM
    1 N1       -0.0167     1.3795     0.0096 N.pl3  1 <0>      -0.8100
    2 C2        0.0021    -0.0041     0.0020 C.ar   1 <0>       0.5400
    3 C3       -1.1956    -0.7388     0.0037 C.ar   1 <0>      -0.1100
    4 N4       -2.5116    -0.4148     0.0116 N.2    1 <0>      -0.4600
    5 C5       -3.2254    -1.5027     0.0091 C.2    1 <0>       0.2900
    6 N6       -2.4093    -2.5952    -0.0007 N.pl3  1 <0>      -0.4600
    7 C7       -2.8367    -3.9965    -0.0062 C.3    1 <0>       0.3200
    8 H8       -2.1586    -4.6009    -0.6086 H      1 <0>       0.1300
    9 O9       -4.1907    -4.1131    -0.4935 O.3    1 <0>      -0.3500
   10 C10      -4.7048    -5.3649    -0.0088 C.3    1 <0>       0.0600
   11 H11      -4.5390    -6.1459    -0.7509 H      1 <0>       0.1000
   12 C12      -6.2009    -5.2347     0.2836 C.3    1 <0>       0.0800
   13 O13      -6.9087    -5.0224    -0.9395 O.3    1 <0>      -0.5600
   14 C14      -3.9418    -5.7027     1.2867 C.3    1 <0>       0.0500
   15 H15      -4.6243    -5.7258     2.1364 H      1 <0>       0.0900
   16 O16      -3.2646    -6.9542     1.1566 O.3    1 <0>      -0.5500
   17 C17      -2.9202    -4.5473     1.4401 C.3    1 <0>       0.0700
   18 H18      -1.9534    -4.9247     1.7733 H      1 <0>       0.1000
   19 O19      -3.4111    -3.5481     2.3360 O.3    1 <0>      -0.5400
   20 C20      -1.1146    -2.1414    -0.0043 C.ar   1 <0>       0.3300
   21 N21       0.0821    -2.7199    -0.0127 N.ar   1 <0>      -0.5800
   22 C22       1.1808    -1.9904    -0.0135 C.ar   1 <0>       0.5700
   23 F23       2.3779    -2.6165    -0.0221 F      1 <0>      -0.0700
   24 N24       1.1533    -0.6679    -0.0125 N.ar   1 <0>      -0.6100
   25 H25       0.8167     1.8759     0.0043 H      1 <0>       0.4100
   26 H26      -0.8632     1.8531     0.0162 H      1 <0>       0.4200
   27 H27      -4.3049    -1.5356     0.0143 H      1 <0>       0.2200
   28 H28      -6.5595    -6.1488     0.7569 H      1 <0>       0.0600
   29 H29      -6.3684    -4.3898     0.9517 H      1 <0>       0.0600
   30 H30      -7.8650    -4.9306    -0.8297 H      1 <0>       0.3900
   31 H31      -3.8531    -7.7055     1.0006 H      1 <0>       0.3900
   32 H32      -3.5687    -3.8687     3.2345 H      1 <0>       0.3900
@<TRIPOS>BOND
   1    1    2 1
   2    1   25 1
   3    1   26 1
   4    2   24 ar
   5    2    3 ar
   6    3   20 ar
   7    3    4 1
   8    4    5 2
   9    5    6 1
  10    5   27 1
  11    6    7 1
  12    6   20 1
  13    7    8 1
  14    7   17 1
  15    7    9 1
  16    9   10 1
  17   10   11 1
  18   10   12 1
  19   10   14 1
  20   12   13 1
  21   12   28 1
  22   12   29 1
  23   13   30 1
  24   14   15 1
  25   14   16 1
  26   14   17 1
  27   16   31 1
  28   17   18 1
  29   17   19 1
  30   19   32 1
  31   20   21 ar
  32   21   22 ar
  33   22   23 1
  34   22   24 ar
@<TRIPOS>MOLECULE
ZINC000004255900
30    31    1     0     0
SMALL
USER_CHARGES
@<TRIPOS>ATOM
1      N1     -0.0166    1.3721    0.0096 N.pl3    1 ZINC000004255900   -0.8000
2      C2      0.0021   -0.0041    0.0020 C.2      1 ZINC000004255900    0.5000
3      N3     -1.1353   -0.6865    0.0037 N.2      1 ZINC000004255900   -0.5900
4      C4     -1.1301   -2.0182   -0.0035 C.2      1 ZINC000004255900    0.6600
5      O5     -2.1902   -2.6221   -0.0021 O.2      1 ZINC000004255900   -0.5200
6      N6      0.0246   -2.7090   -0.0127 N.am     1 ZINC000004255900   -0.5200
7      C7     -0.0024   -4.1737   -0.0210 C.3      1 ZINC000004255900    0.3000
8      H8      1.0055   -4.5744   -0.1292 H        1 ZINC000004255900    0.1200
9      O9     -0.8591   -4.6604   -1.0763 O.3      1 ZINC000004255900   -0.3300
10     C10    -1.2390   -6.0012   -0.7237 C.3      1 ZINC000004255900    0.0600
11     H11    -0.5468   -6.7130   -1.1735 H        1 ZINC000004255900    0.0900
12     C12    -2.6626   -6.2830   -1.2082 C.3      1 ZINC000004255900    0.0800
13     O13    -2.6883   -6.2825   -2.6370 O.3      1 ZINC000004255900   -0.5600
14     C14    -1.1745   -6.1066    0.8124 C.3      1 ZINC000004255900    0.0500
15     H15    -2.1638   -6.3087    1.2228 H        1 ZINC000004255900    0.0900
16     O16    -0.2534   -7.1261    1.2055 O.3      1 ZINC000004255900   -0.5400
17     C17    -0.6691   -4.7146    1.2695 C.3      1 ZINC000004255900    0.0800
18     H18    -1.5013   -4.0782    1.5704 H        1 ZINC000004255900    0.1100
19     O19     0.2825   -4.8399    2.3281 O.3      1 ZINC000004255900   -0.5400
20     C20     1.2207   -2.0521   -0.0148 C.2      1 ZINC000004255900    0.1800
21     C21     1.2316   -0.6971   -0.0134 C.2      1 ZINC000004255900   -0.0800
22     F22     2.4009   -0.0203   -0.0155 F        1 ZINC000004255900   -0.1200
23     H23     0.8168    1.8684    0.0043 H        1 ZINC000004255900    0.4200
24     H24    -0.8631    1.8456    0.0162 H        1 ZINC000004255900    0.4200
25     H25    -2.9860   -7.2564   -0.8394 H        1 ZINC000004255900    0.0600
26     H26    -3.3339   -5.5108   -0.8325 H        1 ZINC000004255900    0.0600
27     H27    -3.5616   -6.4551   -3.0147 H        1 ZINC000004255900    0.3800
28     H28    -0.4906   -8.0110    0.8961 H        1 ZINC000004255900    0.3900
29     H29    -0.0697   -5.2570    3.1263 H        1 ZINC000004255900    0.3900
30     H30     2.1479   -2.6058   -0.0218 H        1 ZINC000004255900    0.1900
@<TRIPOS>BOND
1     1     2     1
2     1     23    1
3     1     24    1
4     2     21    1
5     2     3     2
6     3     4     1
7     4     5     2
8     4     6     am
9     6     7     1
10    6     20    1
11    7     8     1
12    7     17    1
13    7     9     1
14    9     10    1
15    10    11    1
16    10    12    1
17    10    14    1
18    12    13    1
19    12    25    1
20    12    26    1
21    13    27    1
22    14    15    1
23    14    16    1
24    14    17    1
25    16    28    1
26    17    18    1
27    17    19    1
28    19    29    1
29    20    21    2
30    20    30    1
31    21    22    1
@<TRIPOS>SUBSTRUCTURE
1   ZINC000004255900 1     RESIDUE    1   A     ZIN   1
@<TRIPOS>MOLECULE
ZINC000004298810
  37   38    0    0    0
SMALL
USER_CHARGES
NO_NAME
@<TRIPOS>ATOM
    1 C1       -0.4176     1.5463     0.5025 C.3    1 <0>       0.0800
    2 N2       -0.1685     0.1236     0.2576 N.am   1 <0>      -0.5800
    3 C3       -1.1374    -0.7902     0.0518 C.2    1 <0>       0.5300
    4 O4       -2.3342    -0.5974     0.0350 O.2    1 <0>      -0.4600
    5 C5       -0.4195    -2.1091    -0.1551 C.3    1 <0>       0.1100
    6 H6       -0.7041    -2.8257     0.6154 H      1 <0>       0.1400
    7 C7       -0.7167    -2.6712    -1.5468 C.3    1 <0>      -0.1400
    8 C8       -0.1225    -4.0507    -1.6689 C.2    1 <0>       0.5300
    9 O9        0.3909    -4.5773    -0.7045 O.2    1 <0>      -0.5000
   10 N10      -0.1615    -4.6992    -2.8497 N.am   1 <0>      -0.6300
   11 C11      -0.7736    -4.0775    -4.0342 C.3    1 <0>       0.0800
   12 C12       0.2136    -4.1803    -5.2015 C.3    1 <0>      -0.0200
   13 N13       0.6056    -5.5831    -5.3876 N.4    1 <0>      -0.5100
   14 H14      -0.2205    -6.1474    -5.5187 H      1 <0>       0.4300
   15 H15       1.1970    -5.6606    -6.2015 H      1 <0>       0.4400
   16 C16       1.3386    -6.0583    -4.2074 C.3    1 <0>      -0.0200
   17 C17       0.4122    -6.0463    -2.9922 C.3    1 <0>       0.0900
   18 N18       1.0041    -1.7518    -0.0302 N.am   1 <0>      -0.6200
   19 C19       2.1479    -2.6599    -0.1458 C.3    1 <0>       0.1200
   20 C20       1.0493    -0.4280     0.2051 C.2    1 <0>       0.7000
   21 O21       2.0808     0.1958     0.3599 O.2    1 <0>      -0.5300
   22 H22       0.5325     2.0647     0.6314 H      1 <0>       0.1000
   23 H23      -0.9520     1.9730    -0.3464 H      1 <0>       0.0800
   24 H24      -1.0188     1.6599     1.4045 H      1 <0>       0.0800
   25 H25      -1.7954    -2.7259    -1.6938 H      1 <0>       0.1300
   26 H26      -0.2796    -2.0190    -2.3030 H      1 <0>       0.1100
   27 H27      -1.6958    -4.6007    -4.2872 H      1 <0>       0.1000
   28 H28      -0.9887    -3.0291    -3.8277 H      1 <0>       0.1300
   29 H29      -0.2598    -3.8115    -6.1114 H      1 <0>       0.1500
   30 H30       1.0980    -3.5817    -4.9834 H      1 <0>       0.1400
   31 H31       1.6942    -7.0733    -4.3847 H      1 <0>       0.1500
   32 H32       2.1889    -5.4028    -4.0194 H      1 <0>       0.1400
   33 H33       0.9791    -6.3012    -2.0968 H      1 <0>       0.1400
   34 H34      -0.3921    -6.7674    -3.1376 H      1 <0>       0.1000
   35 H35       2.4111    -2.7807    -1.1966 H      1 <0>       0.0500
   36 H36       2.9976    -2.2447     0.3962 H      1 <0>       0.0800
   37 H37       1.8860    -3.6298     0.2771 H      1 <0>       0.1000
@<TRIPOS>BOND
   1    1    2 1
   2    1   22 1
   3    1   23 1
   4    1   24 1
   5    2   20 am
   6    2    3 am
   7    3    4 2
   8    3    5 1
   9    5    6 1
  10    5    7 1
  11    5   18 1
  12    7    8 1
  13    7   25 1
  14    7   26 1
  15    8    9 2
  16    8   10 am
  17   10   17 1
  18   10   11 1
  19   11   12 1
  20   11   27 1
  21   11   28 1
  22   12   13 1
  23   12   29 1
  24   12   30 1
  25   13   14 1
  26   13   15 1
  27   13   16 1
  28   16   17 1
  29   16   31 1
  30   16   32 1
  31   17   33 1
  32   17   34 1
  33   18   19 1
  34   18   20 am
  35   19   35 1
  36   19   36 1
  37   19   37 1
  38   20   21 2
@<TRIPOS>MOLECULE
ZINC000004298811
37    38    1     0     0
SMALL
USER_CHARGES
@<TRIPOS>ATOM
1      C1     -3.0374   -1.5025   -2.7768 C.3      1 ZINC000004298811    0.0800
2      N2     -2.1125   -1.5366   -1.6411 N.am     1 ZINC000004298811   -0.5800
3      C3     -1.4803   -2.6471   -1.2127 C.2      1 ZINC000004298811    0.5200
4      O4     -1.5665   -3.7638   -1.6767 O.2      1 ZINC000004298811   -0.4400
5      C5     -0.6386   -2.2091   -0.0306 C.3      1 ZINC000004298811    0.1100
6      H6      0.4196   -2.3787   -0.2296 H        1 ZINC000004298811    0.1400
7      C7     -1.0704   -2.9447    1.2396 C.3      1 ZINC000004298811   -0.1400
8      C8     -0.7472   -4.4105    1.1058 C.2      1 ZINC000004298811    0.5200
9      O9     -0.1190   -4.8079    0.1474 O.2      1 ZINC000004298811   -0.4800
10     N10    -1.1562   -5.2798    2.0510 N.am     1 ZINC000004298811   -0.6400
11     C11    -1.9245   -4.8213    3.2187 C.3      1 ZINC000004298811    0.0800
12     C12    -3.1702   -5.7027    3.3571 C.3      1 ZINC000004298811   -0.0200
13     N13    -2.7666   -7.1134    3.4131 N.4      1 ZINC000004298811   -0.5100
14     H14    -2.1059   -7.2434    4.1645 H        1 ZINC000004298811    0.4300
15     H15    -3.5793   -7.6882    3.5783 H        1 ZINC000004298811    0.4400
16     C16    -2.1439   -7.5062    2.1426 C.3      1 ZINC000004298811   -0.0200
17     C17    -0.8522   -6.7149    1.9412 C.3      1 ZINC000004298811    0.0900
18     N18    -0.9206   -0.7675    0.0801 N.am     1 ZINC000004298811   -0.6300
19     C19    -0.3621    0.1604    1.0667 C.3      1 ZINC000004298811    0.1200
20     C20    -1.7867   -0.4682   -0.9048 C.2      1 ZINC000004298811    0.7000
21     O21    -2.2294    0.6469   -1.0994 O.2      1 ZINC000004298811   -0.5300
22     H22    -3.4051   -0.4858   -2.9154 H        1 ZINC000004298811    0.1000
23     H23    -2.5179   -1.8271   -3.6783 H        1 ZINC000004298811    0.0800
24     H24    -3.8773   -2.1692   -2.5815 H        1 ZINC000004298811    0.0800
25     H25    -0.5385   -2.5321    2.0969 H        1 ZINC000004298811    0.1200
26     H26    -2.1436   -2.8209    1.3840 H        1 ZINC000004298811    0.1100
27     H27    -1.3128   -4.9080    4.1167 H        1 ZINC000004298811    0.1000
28     H28    -2.2245   -3.7832    3.0752 H        1 ZINC000004298811    0.1300
29     H29    -3.7015   -5.4401    4.2719 H        1 ZINC000004298811    0.1500
30     H30    -3.8239   -5.5455    2.4992 H        1 ZINC000004298811    0.1400
31     H31    -1.9189   -8.5726    2.1625 H        1 ZINC000004298811    0.1500
32     H32    -2.8286   -7.2944    1.3214 H        1 ZINC000004298811    0.1400
33     H33    -0.4413   -6.9294    0.9547 H        1 ZINC000004298811    0.1400
34     H34    -0.1302   -6.9906    2.7098 H        1 ZINC000004298811    0.1000
35     H35     0.5097    0.6593    0.6434 H        1 ZINC000004298811    0.0700
36     H36    -1.1134    0.9043    1.3318 H        1 ZINC000004298811    0.0900
37     H37    -0.0672   -0.3920    1.9588 H        1 ZINC000004298811    0.0800
@<TRIPOS>BOND
1     1     2     1
2     1     22    1
3     1     23    1
4     1     24    1
5     2     20    am
6     2     3     am
7     3     4     2
8     3     5     1
9     5     6     1
10    5     7     1
11    5     18    1
12    7     8     1
13    7     25    1
14    7     26    1
15    8     9     2
16    8     10    am
17    10    17    1
18    10    11    1
19    11    12    1
20    11    27    1
21    11    28    1
22    12    13    1
23    12    29    1
24    12    30    1
25    13    14    1
26    13    15    1
27    13    16    1
28    16    17    1
29    16    31    1
30    16    32    1
31    17    33    1
32    17    34    1
33    18    19    1
34    18    20    am
35    19    35    1
36    19    36    1
37    19    37    1
38    20    21    2
@<TRIPOS>SUBSTRUCTURE
1   ZINC000004298811 1     RESIDUE    1   A     ZIN   1
@<TRIPOS>MOLECULE
ZINC000004533791
38    37    1     0     0
SMALL
USER_CHARGES
@<TRIPOS>ATOM
1      C1      2.2865   -2.5372    1.2712 C.3      1 ZINC000004533791   -0.1700
2      C2      1.1169   -2.3330    0.3431 C.2      1 ZINC000004533791    0.5200
3      O3      1.3074   -2.1357   -0.8383 O.2      1 ZINC000004533791   -0.5400
4      N4     -0.1409   -2.3696    0.8260 N.am     1 ZINC000004533791   -0.7100
5      C5     -1.2779   -2.1711   -0.0762 C.3      1 ZINC000004533791    0.0600
6      H6     -1.0438   -2.5924   -1.0539 H        1 ZINC000004533791    0.1400
7      C7     -1.5553   -0.6967   -0.2179 C.2      1 ZINC000004533791    0.3300
8      O8     -0.8497    0.1071    0.3428 O.2      1 ZINC000004533791   -0.4600
9      C9     -2.5123   -2.8695    0.4977 C.3      1 ZINC000004533791    0.0600
10     H10    -2.7982   -2.3905    1.4342 H        1 ZINC000004533791    0.0800
11     O11    -3.5907   -2.7735   -0.4350 O.3      1 ZINC000004533791   -0.3400
12     C12    -4.5087   -1.7147   -0.1551 C.3      1 ZINC000004533791    0.0200
13     H13    -3.9821   -0.8983    0.3391 H        1 ZINC000004533791    0.0500
14     C14    -5.6205   -2.2322    0.7599 C.3      1 ZINC000004533791   -0.1500
15     C15    -5.1100   -1.2172   -1.4443 C.2      1 ZINC000004533791    0.5000
16     O16    -4.8530   -1.7811   -2.4943 O.co2    1 ZINC000004533791   -0.6700
17     O17    -5.8534   -0.2509   -1.4373 O.co2    1 ZINC000004533791   -0.6900
18     C18    -2.1909   -4.3429    0.7558 C.3      1 ZINC000004533791    0.0900
19     H19    -1.3843   -4.4165    1.4852 H        1 ZINC000004533791    0.1000
20     O20    -1.7860   -4.9632   -0.4662 O.3      1 ZINC000004533791   -0.5500
21     C21    -3.4352   -5.0489    1.2983 C.3      1 ZINC000004533791    0.0800
22     H22    -4.2417   -4.9753    0.5688 H        1 ZINC000004533791    0.1200
23     O23    -3.8400   -4.4286    2.5203 O.3      1 ZINC000004533791   -0.5400
24     C24    -3.1137   -6.5223    1.5563 C.3      1 ZINC000004533791    0.0500
25     O25    -4.3039   -7.2073    1.9518 O.3      1 ZINC000004533791   -0.5600
26     H26     3.2154   -2.4738    0.7044 H        1 ZINC000004533791    0.0900
27     H27     2.2778   -1.7664    2.0418 H        1 ZINC000004533791    0.0900
28     H28     2.2124   -3.5191    1.7386 H        1 ZINC000004533791    0.0900
29     H29    -0.2933   -2.5274    1.7709 H        1 ZINC000004533791    0.4000
30     H30    -2.3852   -0.3588   -0.8208 H        1 ZINC000004533791    0.1100
31     H31    -6.1471   -3.0486    0.2657 H        1 ZINC000004533791    0.0500
32     H32    -5.1856   -2.5920    1.6924 H        1 ZINC000004533791    0.0600
33     H33    -6.3207   -1.4246    0.9734 H        1 ZINC000004533791    0.0600
34     H34    -2.4564   -4.9351   -1.1625 H        1 ZINC000004533791    0.3900
35     H35    -3.1696   -4.4567    3.2166 H        1 ZINC000004533791    0.3700
36     H36    -2.7206   -6.9734    0.6453 H        1 ZINC000004533791    0.0600
37     H37    -2.3701   -6.5985    2.3496 H        1 ZINC000004533791    0.0400
38     H38    -4.1745   -8.1485    2.1323 H        1 ZINC000004533791    0.3800
@<TRIPOS>BOND
1     1     2     1
2     1     26    1
3     1     27    1
4     1     28    1
5     2     3     2
6     2     4     am
7     4     5     1
8     4     29    1
9     5     6     1
10    5     7     1
11    5     9     1
12    7     8     2
13    7     30    1
14    9     10    1
15    9     11    1
16    9     18    1
17    11    12    1
18    12    13    1
19    12    14    1
20    12    15    1
21    14    31    1
22    14    32    1
23    14    33    1
24    15    16    ar
25    15    17    ar
26    18    19    1
27    18    20    1
28    18    21    1
29    20    34    1
30    21    22    1
31    21    23    1
32    21    24    1
33    23    35    1
34    24    25    1
35    24    36    1
36    24    37    1
37    25    38    1
@<TRIPOS>SUBSTRUCTURE
1   ZINC000004533791 1     RESIDUE    1   A     ZIN   1
@<TRIPOS>MOLECULE
ZINC000004831694
  34   33    0    0    0
SMALL
USER_CHARGES
NO_NAME
@<TRIPOS>ATOM
    1 O1        0.0021    -0.0041     0.0020 O.2    1 <0>      -0.9300
    2 S2       -0.0172     1.4168     0.0098 S.o2   1 <0>       2.4300
    3 O3        1.2133     2.1274     0.0019 O.2    1 <0>      -0.9300
    4 C4       -1.0239     1.9888    -1.3865 C.3    1 <0>      -0.6200
    5 C5       -0.3416     1.6010    -2.6999 C.3    1 <0>       0.0900
    6 O6       -1.1347     2.0516    -3.7999 O.3    1 <0>      -0.5600
    7 C7       -0.9970     1.9737     1.4312 C.3    1 <0>      -0.6100
    8 C8       -0.2898     1.5718     2.7271 C.3    1 <0>      -0.1100
    9 C9       -1.1162     2.0416     3.9259 C.3    1 <0>      -0.1100
   10 C10      -0.4090     1.6397     5.2218 C.3    1 <0>      -0.6100
   11 S11      -1.3889     2.1966     6.6432 S.o2   1 <0>       2.4300
   12 O12      -1.4081     3.6175     6.6510 O.2    1 <0>      -0.9300
   13 O13      -2.6194     1.4860     6.6511 O.2    1 <0>      -0.9300
   14 C14      -0.3821     1.6246     8.0395 C.3    1 <0>      -0.6200
   15 C15      -1.0644     2.0124     9.3529 C.3    1 <0>       0.0900
   16 O16      -0.2713     1.5618    10.4529 O.3    1 <0>      -0.5600
   17 H17      -2.0092     1.5251    -1.3382 H      1 <0>       0.1400
   18 H18      -1.1298     3.0726    -1.3383 H      1 <0>       0.1400
   19 H19       0.6436     2.0648    -2.7482 H      1 <0>       0.0600
   20 H20      -0.2358     0.5172    -2.7482 H      1 <0>       0.0600
   21 H21      -0.7618     1.8396    -4.6665 H      1 <0>       0.3900
   22 H22      -1.1036     3.0579     1.3966 H      1 <0>       0.1400
   23 H23      -1.9831     1.5104     1.3967 H      1 <0>       0.1400
   24 H24      -0.1832     0.4876     2.7617 H      1 <0>       0.0900
   25 H25       0.6962     2.0352     2.7616 H      1 <0>       0.0900
   26 H26      -1.2228     3.1258     3.8913 H      1 <0>       0.0900
   27 H27      -2.1023     1.5782     3.8914 H      1 <0>       0.0900
   28 H28      -0.3024     0.5555     5.2564 H      1 <0>       0.1400
   29 H29       0.5770     2.1030     5.2563 H      1 <0>       0.1400
   30 H30      -0.2763     0.5408     7.9913 H      1 <0>       0.1400
   31 H31       0.6031     2.0884     7.9912 H      1 <0>       0.1400
   32 H32      -1.1702     3.0962     9.4012 H      1 <0>       0.0600
   33 H33      -2.0497     1.5487     9.4013 H      1 <0>       0.0600
   34 H34      -0.6443     1.7738    11.3196 H      1 <0>       0.3900
@<TRIPOS>BOND
   1    1    2 2
   2    2    3 2
   3    2    4 1
   4    2    7 1
   5    4    5 1
   6    4   17 1
   7    4   18 1
   8    5    6 1
   9    5   19 1
  10    5   20 1
  11    6   21 1
  12    7    8 1
  13    7   22 1
  14    7   23 1
  15    8    9 1
  16    8   24 1
  17    8   25 1
  18    9   10 1
  19    9   26 1
  20    9   27 1
  21   10   11 1
  22   10   28 1
  23   10   29 1
  24   11   12 2
  25   11   13 2
  26   11   14 1
  27   14   15 1
  28   14   30 1
  29   14   31 1
  30   15   16 1
  31   15   32 1
  32   15   33 1
  33   16   34 1
@<TRIPOS>MOLECULE
ZINC000004877169
  33   35    0    0    0
SMALL
USER_CHARGES
NO_NAME
@<TRIPOS>ATOM
    1 N1       -0.0167     1.3810     0.0096 N.pl3  1 <0>      -0.8200
    2 C2        0.0021    -0.0041     0.0020 C.ar   1 <0>       0.6300
    3 N3       -1.1511    -0.6604     0.0041 N.ar   1 <0>      -0.6300
    4 C4       -1.1853    -1.9883    -0.0030 C.ar   1 <0>       0.5500
    5 N5       -2.3927    -2.6641    -0.0012 N.pl3  1 <0>      -0.8100
    6 C6        0.0313    -2.6921    -0.0127 C.ar   1 <0>      -0.1500
    7 N7        0.3708    -4.0047    -0.0211 N.2    1 <0>      -0.4500
    8 C8        1.6669    -4.1166    -0.0278 C.2    1 <0>       0.2500
    9 N9        2.2412    -2.8789    -0.0241 N.pl3  1 <0>      -0.4700
   10 C10       3.6774    -2.5897    -0.0294 C.3    1 <0>       0.3100
   11 H11       3.8916    -1.7045     0.5694 H      1 <0>       0.1100
   12 C12       4.1916    -2.4051    -1.4799 C.3    1 <0>      -0.2000
   13 C13       5.6938    -2.7514    -1.3379 C.3    1 <0>       0.0800
   14 H14       6.2875    -1.8424    -1.2419 H      1 <0>       0.0900
   15 O15       6.1375    -3.5212    -2.4572 O.3    1 <0>      -0.5500
   16 C16       5.7688    -3.5840    -0.0434 C.3    1 <0>       0.0900
   17 H17       6.3830    -3.0676     0.6943 H      1 <0>       0.1000
   18 C18       6.3645    -4.9608    -0.3440 C.3    1 <0>       0.0900
   19 O19       6.5381    -5.6817     0.8775 O.3    1 <0>      -0.5700
   20 O20       4.4264    -3.7248     0.4553 O.3    1 <0>      -0.3600
   21 C21       1.2271    -1.9551    -0.0146 C.ar   1 <0>       0.3500
   22 N22       1.1693    -0.6271    -0.0125 N.ar   1 <0>      -0.6200
   23 H23       0.8166     1.8773     0.0043 H      1 <0>       0.4100
   24 H24      -0.8632     1.8545     0.0162 H      1 <0>       0.4200
   25 H25      -3.2262    -2.1680     0.0053 H      1 <0>       0.4100
   26 H26      -2.4056    -3.6340    -0.0064 H      1 <0>       0.4200
   27 H27       2.2083    -5.0511    -0.0352 H      1 <0>       0.2200
   28 H28       3.6953    -3.0976    -2.1597 H      1 <0>       0.1000
   29 H29       4.0596    -1.3751    -1.8112 H      1 <0>       0.1000
   30 H30       6.0574    -3.0640    -3.3055 H      1 <0>       0.3900
   31 H31       5.6908    -5.5130    -0.9992 H      1 <0>       0.0600
   32 H32       7.3302    -4.8396    -0.8347 H      1 <0>       0.0700
   33 H33       6.9127    -6.5658     0.7627 H      1 <0>       0.3800
@<TRIPOS>BOND
   1    1    2 1
   2    1   23 1
   3    1   24 1
   4    2   22 ar
   5    2    3 ar
   6    3    4 ar
   7    4    5 1
   8    4    6 ar
   9    5   25 1
  10    5   26 1
  11    6   21 ar
  12    6    7 1
  13    7    8 2
  14    8    9 1
  15    8   27 1
  16    9   10 1
  17    9   21 1
  18   10   11 1
  19   10   20 1
  20   10   12 1
  21   12   13 1
  22   12   28 1
  23   12   29 1
  24   13   14 1
  25   13   15 1
  26   13   16 1
  27   15   30 1
  28   16   17 1
  29   16   18 1
  30   16   20 1
  31   18   19 1
  32   18   31 1
  33   18   32 1
  34   19   33 1
  35   21   22 ar
@<TRIPOS>MOLECULE
ZINC000004877171
  33   35    0    0    0
SMALL
USER_CHARGES
NO_NAME
@<TRIPOS>ATOM
    1 N1       -0.0167     1.3810     0.0096 N.pl3  1 <0>      -0.8200
    2 C2        0.0021    -0.0041     0.0020 C.ar   1 <0>       0.6300
    3 N3       -1.1511    -0.6604     0.0041 N.ar   1 <0>      -0.6300
    4 C4       -1.1853    -1.9883    -0.0030 C.ar   1 <0>       0.5500
    5 N5       -2.3927    -2.6641    -0.0012 N.pl3  1 <0>      -0.8200
    6 C6        0.0313    -2.6921    -0.0127 C.ar   1 <0>      -0.1500
    7 N7        0.3708    -4.0047    -0.0211 N.2    1 <0>      -0.4500
    8 C8        1.6669    -4.1166    -0.0278 C.2    1 <0>       0.2500
    9 N9        2.2412    -2.8789    -0.0241 N.pl3  1 <0>      -0.4800
   10 C10       3.6774    -2.5897    -0.0294 C.3    1 <0>       0.3100
   11 H11       3.8810    -1.6983    -0.6228 H      1 <0>       0.1100
   12 C12       4.1933    -2.4007     1.4194 C.3    1 <0>      -0.1900
   13 C13       5.6948    -2.7576     1.2466 C.3    1 <0>       0.0800
   14 H14       6.1101    -3.1481     2.1756 H      1 <0>       0.0900
   15 O15       6.4387    -1.6235     0.7967 O.3    1 <0>      -0.5500
   16 C16       5.6480    -3.8550     0.1617 C.3    1 <0>       0.1000
   17 H17       5.6960    -4.8388     0.6285 H      1 <0>       0.1100
   18 C18       6.8221    -3.6809    -0.8038 C.3    1 <0>       0.0800
   19 O19       6.8388    -4.7656    -1.7339 O.3    1 <0>      -0.5700
   20 O20       4.4100    -3.7115    -0.5473 O.3    1 <0>      -0.3600
   21 C21       1.2271    -1.9551    -0.0146 C.ar   1 <0>       0.3500
   22 N22       1.1693    -0.6271    -0.0125 N.ar   1 <0>      -0.6100
   23 H23       0.8166     1.8773     0.0043 H      1 <0>       0.4100
   24 H24      -0.8632     1.8545     0.0162 H      1 <0>       0.4200
   25 H25      -3.2262    -2.1680     0.0053 H      1 <0>       0.4100
   26 H26      -2.4056    -3.6340    -0.0064 H      1 <0>       0.4200
   27 H27       2.2083    -5.0511    -0.0352 H      1 <0>       0.2200
   28 H28       4.0701    -1.3690     1.7488 H      1 <0>       0.1000
   29 H29       3.7017    -3.0912     2.1047 H      1 <0>       0.1000
   30 H30       6.4238    -0.8753     1.4091 H      1 <0>       0.3900
   31 H31       6.7119    -2.7407    -1.3440 H      1 <0>       0.0600
   32 H32       7.7560    -3.6697    -0.2418 H      1 <0>       0.0600
   33 H33       7.5588    -4.7205    -2.3778 H      1 <0>       0.3800
@<TRIPOS>BOND
   1    1    2 1
   2    1   23 1
   3    1   24 1
   4    2   22 ar
   5    2    3 ar
   6    3    4 ar
   7    4    5 1
   8    4    6 ar
   9    5   25 1
  10    5   26 1
  11    6   21 ar
  12    6    7 1
  13    7    8 2
  14    8    9 1
  15    8   27 1
  16    9   10 1
  17    9   21 1
  18   10   11 1
  19   10   20 1
  20   10   12 1
  21   12   13 1
  22   12   28 1
  23   12   29 1
  24   13   14 1
  25   13   15 1
  26   13   16 1
  27   15   30 1
  28   16   17 1
  29   16   18 1
  30   16   20 1
  31   18   19 1
  32   18   31 1
  33   18   32 1
  34   19   33 1
  35   21   22 ar
@<TRIPOS>MOLECULE
ZINC000005117753
  33   35    0    0    0
SMALL
USER_CHARGES
NO_NAME
@<TRIPOS>ATOM
    1 N1       -0.0167     1.3810     0.0096 N.pl3  1 <0>      -0.8200
    2 C2        0.0021    -0.0041     0.0020 C.ar   1 <0>       0.6300
    3 N3       -1.1511    -0.6604     0.0041 N.ar   1 <0>      -0.6300
    4 C4       -1.1853    -1.9883    -0.0030 C.ar   1 <0>       0.5500
    5 N5       -2.3927    -2.6641    -0.0012 N.pl3  1 <0>      -0.8200
    6 C6        0.0313    -2.6921    -0.0127 C.ar   1 <0>      -0.1500
    7 N7        0.3708    -4.0047    -0.0211 N.2    1 <0>      -0.4500
    8 C8        1.6669    -4.1166    -0.0278 C.2    1 <0>       0.2500
    9 N9        2.2412    -2.8789    -0.0241 N.pl3  1 <0>      -0.4700
   10 C10       3.6774    -2.5897    -0.0294 C.3    1 <0>       0.3100
   11 H11       3.8820    -1.6984    -0.6226 H      1 <0>       0.1100
   12 C12       4.1941    -2.4049     1.4146 C.3    1 <0>      -0.1900
   13 C13       5.5987    -3.0483     1.3960 C.3    1 <0>       0.0800
   14 H14       5.6450    -3.8846     2.0936 H      1 <0>       0.0800
   15 O15       6.5983    -2.0776     1.7130 O.3    1 <0>      -0.5500
   16 C16       5.7645    -3.5457    -0.0571 C.3    1 <0>       0.0900
   17 H17       6.2910    -2.8018    -0.6550 H      1 <0>       0.1000
   18 C18       6.5176    -4.8773    -0.0815 C.3    1 <0>       0.0900
   19 O19       6.7623    -5.2613    -1.4361 O.3    1 <0>      -0.5700
   20 O20       4.4157    -3.7182    -0.5464 O.3    1 <0>      -0.3500
   21 C21       1.2271    -1.9551    -0.0146 C.ar   1 <0>       0.3500
   22 N22       1.1693    -0.6271    -0.0125 N.ar   1 <0>      -0.6100
   23 H23       0.8166     1.8773     0.0043 H      1 <0>       0.4200
   24 H24      -0.8632     1.8545     0.0162 H      1 <0>       0.4200
   25 H25      -3.2262    -2.1680     0.0053 H      1 <0>       0.4100
   26 H26      -2.4056    -3.6340    -0.0064 H      1 <0>       0.4200
   27 H27       2.2083    -5.0511    -0.0352 H      1 <0>       0.2200
   28 H28       4.2624    -1.3458     1.6633 H      1 <0>       0.1000
   29 H29       3.5459    -2.9231     2.1214 H      1 <0>       0.0900
   30 H30       6.5044    -1.6895     2.5937 H      1 <0>       0.3900
   31 H31       7.4672    -4.7674     0.4422 H      1 <0>       0.0700
   32 H32       5.9178    -5.6430     0.4105 H      1 <0>       0.0600
   33 H33       7.2373    -6.0986    -1.5278 H      1 <0>       0.3900
@<TRIPOS>BOND
   1    1    2 1
   2    1   23 1
   3    1   24 1
   4    2   22 ar
   5    2    3 ar
   6    3    4 ar
   7    4    5 1
   8    4    6 ar
   9    5   25 1
  10    5   26 1
  11    6   21 ar
  12    6    7 1
  13    7    8 2
  14    8    9 1
  15    8   27 1
  16    9   10 1
  17    9   21 1
  18   10   11 1
  19   10   20 1
  20   10   12 1
  21   12   13 1
  22   12   28 1
  23   12   29 1
  24   13   14 1
  25   13   15 1
  26   13   16 1
  27   15   30 1
  28   16   17 1
  29   16   18 1
  30   16   20 1
  31   18   19 1
  32   18   31 1
  33   18   32 1
  34   19   33 1
  35   21   22 ar
@<TRIPOS>MOLECULE
ZINC000005157115
42    42    1     0     0
SMALL
USER_CHARGES
@<TRIPOS>ATOM
1      O1     -0.2775   -1.0234   -1.0873 O.co2    1 ZINC000005157115   -0.7000
2      C2     -0.1396    0.1861   -1.0195 C.2      1 ZINC000005157115    0.4900
3      O3      0.9689    0.6806   -1.1350 O.co2    1 ZINC000005157115   -0.7000
4      C4     -1.3399    1.0702   -0.7994 C.3      1 ZINC000005157115   -0.1900
5      C5     -2.5980    0.2057   -0.6958 C.3      1 ZINC000005157115   -0.0900
6      C6     -3.8167    1.1033   -0.4723 C.3      1 ZINC000005157115   -0.1200
7      C7     -5.0748    0.2388   -0.3686 C.3      1 ZINC000005157115   -0.1500
8      C8     -6.2934    1.1364   -0.1451 C.3      1 ZINC000005157115   -0.0300
9      N9     -7.5013    0.3064   -0.0456 N.4      1 ZINC000005157115   -0.3700
10     H10    -7.5760   -0.2767   -0.8657 H        1 ZINC000005157115    0.4400
11     C11    -7.4135   -0.5415    1.1494 C.3      1 ZINC000005157115   -0.0100
12     C12    -7.2205    0.3354    2.3885 C.3      1 ZINC000005157115    0.0600
13     H13    -6.3019    0.9131    2.2860 H        1 ZINC000005157115    0.0900
14     O14    -7.1366   -0.4923    3.5504 O.3      1 ZINC000005157115   -0.5400
15     C15    -8.4117    1.2884    2.5232 C.3      1 ZINC000005157115    0.0300
16     H16    -9.3240    0.7121    2.6769 H        1 ZINC000005157115    0.0900
17     O17    -8.2033    2.1592    3.6369 O.3      1 ZINC000005157115   -0.5500
18     C18    -8.5385    2.1157    1.2408 C.3      1 ZINC000005157115    0.1100
19     H19    -7.6473    2.7304    1.1146 H        1 ZINC000005157115    0.0900
20     O20    -9.6902    2.9572    1.3278 O.3      1 ZINC000005157115   -0.5400
21     C21    -8.6825    1.1729    0.0460 C.3      1 ZINC000005157115    0.0400
22     H22    -9.5741    0.5590    0.1736 H        1 ZINC000005157115    0.1500
23     C23    -8.8092    1.9943   -1.2386 C.3      1 ZINC000005157115    0.0600
24     O24    -8.9860    1.1147   -2.3509 O.3      1 ZINC000005157115   -0.5800
25     H25    -1.2105    1.6355    0.1235 H        1 ZINC000005157115    0.0600
26     H26    -1.4413    1.7604   -1.6370 H        1 ZINC000005157115    0.0600
27     H27    -2.7275   -0.3596   -1.6187 H        1 ZINC000005157115    0.0600
28     H28    -2.4966   -0.4845    0.1418 H        1 ZINC000005157115    0.0600
29     H29    -3.6872    1.6686    0.4507 H        1 ZINC000005157115    0.0700
30     H30    -3.9181    1.7935   -1.3098 H        1 ZINC000005157115    0.0700
31     H31    -5.2042   -0.3265   -1.2916 H        1 ZINC000005157115    0.0900
32     H32    -4.9733   -0.4514    0.4689 H        1 ZINC000005157115    0.0900
33     H33    -6.1640    1.7017    0.7778 H        1 ZINC000005157115    0.1300
34     H34    -6.3948    1.8266   -0.9827 H        1 ZINC000005157115    0.1400
35     H35    -8.3322   -1.1189    1.2529 H        1 ZINC000005157115    0.1400
36     H36    -6.5673   -1.2213    1.0505 H        1 ZINC000005157115    0.1500
37     H37    -7.0137   -0.0018    4.3746 H        1 ZINC000005157115    0.4000
38     H38    -8.1087    1.7003    4.4828 H        1 ZINC000005157115    0.4000
39     H39    -9.6675    3.5797    2.0675 H        1 ZINC000005157115    0.4100
40     H40    -9.6692    2.6595   -1.1612 H        1 ZINC000005157115    0.1000
41     H41    -7.9047    2.5851   -1.3828 H        1 ZINC000005157115    0.0800
42     H42    -9.0736    1.5678   -3.2006 H        1 ZINC000005157115    0.4100
@<TRIPOS>BOND
1     1     2     ar
2     2     3     ar
3     2     4     1
4     4     5     1
5     4     25    1
6     4     26    1
7     5     6     1
8     5     27    1
9     5     28    1
10    6     7     1
11    6     29    1
12    6     30    1
13    7     8     1
14    7     31    1
15    7     32    1
16    8     9     1
17    8     33    1
18    8     34    1
19    9     10    1
20    9     21    1
21    9     11    1
22    11    12    1
23    11    35    1
24    11    36    1
25    12    13    1
26    12    14    1
27    12    15    1
28    14    37    1
29    15    16    1
30    15    17    1
31    15    18    1
32    17    38    1
33    18    19    1
34    18    20    1
35    18    21    1
36    20    39    1
37    21    22    1
38    21    23    1
39    23    24    1
40    23    40    1
41    23    41    1
42    24    42    1
@<TRIPOS>SUBSTRUCTURE
1   ZINC000005157115 1     RESIDUE    1   A     ZIN   1
@<TRIPOS>MOLECULE
ZINC000005161895
  36   37    0    0    0
SMALL
USER_CHARGES
NO_NAME
@<TRIPOS>ATOM
    1 N1       -0.0169     1.3952     0.0097 N.pl3  1 <0>      -0.8800
    2 C2        0.0021    -0.0041     0.0020 C.ar   1 <0>       0.1900
    3 C3       -1.1907    -0.7150     0.0038 C.ar   1 <0>      -0.1600
    4 C4       -1.1711    -2.0960    -0.0043 C.ar   1 <0>      -0.1000
    5 C5        0.0396    -2.7727    -0.0137 C.ar   1 <0>       0.0600
    6 O6        0.0580    -4.1325    -0.0212 O.3    1 <0>      -0.3300
    7 C7        1.3400    -4.7639    -0.0307 C.3    1 <0>       0.2100
    8 H8        1.9542    -4.3277    -0.8185 H      1 <0>       0.1200
    9 O9        1.9768    -4.5685     1.2335 O.3    1 <0>      -0.3600
   10 C10       1.2391    -5.0826     2.3442 C.3    1 <0>       0.1000
   11 H11       0.2600    -4.6052     2.3825 H      1 <0>       0.0800
   12 C12       1.9992    -4.7926     3.6399 C.3    1 <0>       0.0900
   13 O13       2.0623    -3.3804     3.8492 O.3    1 <0>      -0.5600
   14 C14       1.0637    -6.5948     2.1824 C.3    1 <0>       0.0900
   15 H15       2.0412    -7.0772     2.1847 H      1 <0>       0.0800
   16 O16       0.2781    -7.1027     3.2627 O.3    1 <0>      -0.5600
   17 C17       0.3554    -6.8797     0.8545 C.3    1 <0>       0.0900
   18 H18      -0.6416    -6.4394     0.8712 H      1 <0>       0.0900
   19 O19       0.2511    -8.2918     0.6616 O.3    1 <0>      -0.5500
   20 C20       1.1687    -6.2633    -0.2881 C.3    1 <0>       0.0600
   21 H21       0.6435    -6.4135    -1.2314 H      1 <0>       0.0800
   22 O22       2.4524    -6.8879    -0.3516 O.3    1 <0>      -0.5300
   23 C23       1.2315    -2.0633    -0.0159 C.ar   1 <0>      -0.1300
   24 C24       1.2137    -0.6823    -0.0132 C.ar   1 <0>      -0.1600
   25 H25       0.8165     1.8915     0.0044 H      1 <0>       0.4000
   26 H26      -0.8634     1.8687     0.0163 H      1 <0>       0.4000
   27 H27      -2.1335    -0.1883     0.0118 H      1 <0>       0.1300
   28 H28      -2.0987    -2.6491    -0.0029 H      1 <0>       0.1300
   29 H29       1.4822    -5.2612     4.4772 H      1 <0>       0.0700
   30 H30       3.0098    -5.1944     3.5660 H      1 <0>       0.0500
   31 H31       2.5314    -3.1227     4.6546 H      1 <0>       0.3800
   32 H32       0.1267    -8.0570     3.2242 H      1 <0>       0.3900
   33 H33      -0.1882    -8.5449    -0.1618 H      1 <0>       0.3900
   34 H34       3.0219    -6.5458    -1.0543 H      1 <0>       0.3800
   35 H35       2.1738    -2.5910    -0.0233 H      1 <0>       0.1300
   36 H36       2.1418    -0.1301    -0.0149 H      1 <0>       0.1200
@<TRIPOS>BOND
   1    1    2 1
   2    1   25 1
   3    1   26 1
   4    2   24 ar
   5    2    3 ar
   6    3    4 ar
   7    3   27 1
   8    4    5 ar
   9    4   28 1
  10    5    6 1
  11    5   23 ar
  12    6    7 1
  13    7    8 1
  14    7   20 1
  15    7    9 1
  16    9   10 1
  17   10   11 1
  18   10   12 1
  19   10   14 1
  20   12   13 1
  21   12   29 1
  22   12   30 1
  23   13   31 1
  24   14   15 1
  25   14   16 1
  26   14   17 1
  27   16   32 1
  28   17   18 1
  29   17   19 1
  30   17   20 1
  31   19   33 1
  32   20   21 1
  33   20   22 1
  34   22   34 1
  35   23   24 ar
  36   23   35 1
  37   24   36 1
@<TRIPOS>MOLECULE
ZINC000005163035
  31   33    0    0    0
SMALL
USER_CHARGES
NO_NAME
@<TRIPOS>ATOM
    1 N1       -0.0167     1.3797     0.0096 N.pl3  1 <0>      -0.8200
    2 C2        0.0021    -0.0041     0.0020 C.ar   1 <0>       0.5100
    3 C3       -1.1953    -0.7393     0.0036 C.ar   1 <0>      -0.1100
    4 N4       -2.5111    -0.4171     0.0123 N.2    1 <0>      -0.4600
    5 C5       -3.2237    -1.5060     0.0097 C.2    1 <0>       0.2600
    6 N6       -2.4068    -2.5973    -0.0008 N.pl3  1 <0>      -0.4800
    7 C7       -2.8327    -3.9990    -0.0071 C.3    1 <0>       0.3100
    8 H8       -2.1471    -4.5918    -0.6126 H      1 <0>       0.1300
    9 O9       -4.1656    -4.1024    -0.5352 O.3    1 <0>      -0.3400
   10 C10      -4.8155    -5.1823     0.1692 C.3    1 <0>       0.0600
   11 H11      -4.4943    -6.1462    -0.2256 H      1 <0>       0.1100
   12 C12      -6.3367    -5.0453     0.0800 C.3    1 <0>       0.0800
   13 O13      -6.7530    -5.2292    -1.2746 O.3    1 <0>      -0.5600
   14 C14      -4.3326    -5.0028     1.6310 C.3    1 <0>       0.0300
   15 H15      -4.9158    -4.2368     2.1420 H      1 <0>       0.1200
   16 F16      -4.3866    -6.2152     2.3270 F      1 <0>      -0.1800
   17 C17      -2.8639    -4.5436     1.4341 C.3    1 <0>       0.0500
   18 H18      -2.6119    -3.7563     2.1446 H      1 <0>       0.0900
   19 O19      -1.9706    -5.6497     1.5774 O.3    1 <0>      -0.5300
   20 C20      -1.1125    -2.1421    -0.0049 C.ar   1 <0>       0.3100
   21 N21       0.0849    -2.7183    -0.0145 N.ar   1 <0>      -0.5500
   22 C22       1.1806    -1.9886    -0.0159 C.ar   1 <0>       0.3700
   23 N23       1.1531    -0.6685    -0.0125 N.ar   1 <0>      -0.5900
   24 H24       0.8167     1.8761     0.0043 H      1 <0>       0.4100
   25 H25      -0.8632     1.8532     0.0162 H      1 <0>       0.4200
   26 H26      -4.3032    -1.5401     0.0154 H      1 <0>       0.2200
   27 H27      -6.8070    -5.8001     0.7102 H      1 <0>       0.0700
   28 H28      -6.6327    -4.0528     0.4195 H      1 <0>       0.0600
   29 H29      -7.7082    -5.1557    -1.4060 H      1 <0>       0.3900
   30 H30      -1.9959    -6.0652     2.4502 H      1 <0>       0.4000
   31 H31       2.1380    -2.4885    -0.0238 H      1 <0>       0.2100
@<TRIPOS>BOND
   1    1    2 1
   2    1   24 1
   3    1   25 1
   4    2   23 ar
   5    2    3 ar
   6    3   20 ar
   7    3    4 1
   8    4    5 2
   9    5    6 1
  10    5   26 1
  11    6    7 1
  12    6   20 1
  13    7    8 1
  14    7   17 1
  15    7    9 1
  16    9   10 1
  17   10   11 1
  18   10   12 1
  19   10   14 1
  20   12   13 1
  21   12   27 1
  22   12   28 1
  23   13   29 1
  24   14   15 1
  25   14   16 1
  26   14   17 1
  27   17   18 1
  28   17   19 1
  29   19   30 1
  30   20   21 ar
  31   21   22 ar
  32   22   23 ar
  33   22   31 1
@<TRIPOS>MOLECULE
ZINC000005273895
  35   34    0    0    0
SMALL
USER_CHARGES
NO_NAME
@<TRIPOS>ATOM
    1 O1        0.0021    -0.0041     0.0020 O.co2  1 <0>      -1.0600
    2 S2       -0.0177     1.4504     0.0100 S.o2   1 <0>       2.6400
    3 O3        1.3412     1.9695    -0.0002 O.co2  1 <0>      -1.0600
    4 O4       -0.7519     1.9474    -1.1432 O.co2  1 <0>      -1.0600
    5 C5       -0.8484     2.0158     1.5203 C.3    1 <0>      -0.6800
    6 C6       -2.2804     1.4778     1.5465 C.3    1 <0>      -0.0900
    7 C7       -2.9811     1.9547     2.8204 C.3    1 <0>      -0.1400
    8 C8       -4.4131     1.4167     2.8466 C.3    1 <0>      -0.0200
    9 N9       -5.0859     1.8746     4.0696 N.4    1 <0>      -0.4900
   10 H10      -4.5842     1.5351     4.8766 H      1 <0>       0.4300
   11 H11      -5.1051     2.8832     4.0854 H      1 <0>       0.4300
   12 C12      -6.4608     1.3581     4.0948 C.3    1 <0>       0.0700
   13 C13      -7.2215     1.8729     2.8712 C.3    1 <0>       0.0600
   14 O14      -7.1494     3.2995     2.8309 O.3    1 <0>      -0.5800
   15 C15      -6.4316    -0.1715     4.0709 C.3    1 <0>       0.0600
   16 O16      -5.7212    -0.6523     5.2137 O.3    1 <0>      -0.5800
   17 C17      -7.1615     1.8349     5.3686 C.3    1 <0>       0.0700
   18 O18      -8.4990     1.3325     5.3932 O.3    1 <0>      -0.5600
   19 H19      -0.3064     1.6490     2.3920 H      1 <0>       0.1100
   20 H20      -0.8692     3.1054     1.5373 H      1 <0>       0.1100
   21 H21      -2.8223     1.8446     0.6748 H      1 <0>       0.0800
   22 H22      -2.2596     0.3882     1.5295 H      1 <0>       0.0800
   23 H23      -2.4392     1.5879     3.6921 H      1 <0>       0.0900
   24 H24      -3.0019     3.0443     2.8374 H      1 <0>       0.0900
   25 H25      -4.9551     1.7835     1.9748 H      1 <0>       0.1300
   26 H26      -4.3923     0.3271     2.8295 H      1 <0>       0.1300
   27 H27      -6.7752     1.4608     1.9661 H      1 <0>       0.0800
   28 H28      -8.2647     1.5635     2.9352 H      1 <0>       0.1000
   29 H29      -7.6111     3.6956     2.0793 H      1 <0>       0.4100
   30 H30      -7.4519    -0.5547     4.0896 H      1 <0>       0.1000
   31 H31      -5.9325    -0.5112     3.1634 H      1 <0>       0.0800
   32 H32      -5.6630    -1.6162     5.2639 H      1 <0>       0.4100
   33 H33      -6.6196     1.4682     6.2404 H      1 <0>       0.0800
   34 H34      -7.1823     2.9246     5.3857 H      1 <0>       0.0800
   35 H35      -9.0039     1.5960     6.1746 H      1 <0>       0.4000
@<TRIPOS>BOND
   1    1    2 ar
   2    2    3 ar
   3    2    4 ar
   4    2    5 1
   5    5    6 1
   6    5   19 1
   7    5   20 1
   8    6    7 1
   9    6   21 1
  10    6   22 1
  11    7    8 1
  12    7   23 1
  13    7   24 1
  14    8    9 1
  15    8   25 1
  16    8   26 1
  17    9   10 1
  18    9   11 1
  19    9   12 1
  20   12   13 1
  21   12   15 1
  22   12   17 1
  23   13   14 1
  24   13   27 1
  25   13   28 1
  26   14   29 1
  27   15   16 1
  28   15   30 1
  29   15   31 1
  30   16   32 1
  31   17   18 1
  32   17   33 1
  33   17   34 1
  34   18   35 1
@<TRIPOS>MOLECULE
ZINC000005341049
37    37    1     0     0
SMALL
USER_CHARGES
@<TRIPOS>ATOM
1      O1      0.0021   -0.0041    0.0020 O.2      1 ZINC000005341049   -0.4400
2      C2     -0.0143    1.2034    0.0087 C.2      1 ZINC000005341049    0.3400
3      C3      1.2804    1.9746    0.0004 C.3      1 ZINC000005341049    0.0500
4      H4      1.3211    2.6067   -0.8866 H        1 ZINC000005341049    0.1300
5      N5      2.4067    1.0378   -0.0153 N.am     1 ZINC000005341049   -0.7000
6      C6      2.8486    0.5350   -1.1851 C.2      1 ZINC000005341049    0.5700
7      O7      2.3127    0.8587   -2.2270 O.2      1 ZINC000005341049   -0.5400
8      C8      3.9852   -0.4104   -1.2010 C.ar     1 ZINC000005341049   -0.1300
9      C9      4.5991   -0.7886   -0.0059 C.ar     1 ZINC000005341049   -0.0800
10     C10     5.6589   -1.6715   -0.0277 C.ar     1 ZINC000005341049   -0.1300
11     C11     6.1138   -2.1814   -1.2308 C.ar     1 ZINC000005341049   -0.0900
12     C12     5.5100   -1.8102   -2.4191 C.ar     1 ZINC000005341049   -0.1300
13     C13     4.4453   -0.9330   -2.4107 C.ar     1 ZINC000005341049   -0.0600
14     C14     1.3614    2.8485    1.2537 C.3      1 ZINC000005341049    0.0800
15     H15     0.5235    3.5455    1.2654 H        1 ZINC000005341049    0.1400
16     O16     1.3080    2.0197    2.4166 O.3      1 ZINC000005341049   -0.5400
17     C17     2.6759    3.6315    1.2453 C.3      1 ZINC000005341049    0.0500
18     H18     2.6784    4.3283    0.4072 H        1 ZINC000005341049    0.1200
19     O19     3.7708    2.7228    1.1126 O.3      1 ZINC000005341049   -0.5400
20     C20     2.8146    4.4092    2.5556 C.3      1 ZINC000005341049    0.0900
21     H21     2.8121    3.7123    3.3937 H        1 ZINC000005341049    0.1100
22     O22     1.7198    5.3179    2.6884 O.3      1 ZINC000005341049   -0.5400
23     C23     4.1291    5.1921    2.5473 C.3      1 ZINC000005341049    0.0500
24     O24     4.3146    5.8250    3.8150 O.3      1 ZINC000005341049   -0.5600
25     H25    -0.9568    1.7306    0.0160 H        1 ZINC000005341049    0.1100
26     H26     2.8343    0.7795    0.8161 H        1 ZINC000005341049    0.3900
27     H27     4.2454   -0.3907    0.9337 H        1 ZINC000005341049    0.1200
28     H28     6.1348   -1.9649    0.8963 H        1 ZINC000005341049    0.1300
29     H29     6.9441   -2.8720   -1.2424 H        1 ZINC000005341049    0.1300
30     H30     5.8701   -2.2116   -3.3548 H        1 ZINC000005341049    0.1300
31     H31     3.9746   -0.6443   -3.3389 H        1 ZINC000005341049    0.1400
32     H32     2.0253    1.3737    2.4724 H        1 ZINC000005341049    0.3700
33     H33     3.8306    2.0722    1.8255 H        1 ZINC000005341049    0.3700
34     H34     1.6599    5.9684    1.9754 H        1 ZINC000005341049    0.3700
35     H35     4.9574    4.5095    2.3572 H        1 ZINC000005341049    0.0600
36     H36     4.0957    5.9498    1.7644 H        1 ZINC000005341049    0.0500
37     H37     5.1301    6.3403    3.8817 H        1 ZINC000005341049    0.3800
@<TRIPOS>BOND
1     1     2     2
2     2     3     1
3     2     25    1
4     3     4     1
5     3     5     1
6     3     14    1
7     5     6     am
8     5     26    1
9     6     7     2
10    6     8     1
11    8     13    ar
12    8     9     ar
13    9     10    ar
14    9     27    1
15    10    11    ar
16    10    28    1
17    11    12    ar
18    11    29    1
19    12    13    ar
20    12    30    1
21    13    31    1
22    14    15    1
23    14    16    1
24    14    17    1
25    16    32    1
26    17    18    1
27    17    19    1
28    17    20    1
29    19    33    1
30    20    21    1
31    20    22    1
32    20    23    1
33    22    34    1
34    23    24    1
35    23    35    1
36    23    36    1
37    24    37    1
@<TRIPOS>SUBSTRUCTURE
1   ZINC000005341049 1     RESIDUE    1   A     ZIN   1
@<TRIPOS>MOLECULE
ZINC000005421222
  34   35    0    0    0
SMALL
USER_CHARGES
NO_NAME
@<TRIPOS>ATOM
    1 N1       -0.0169     1.3954     0.0097 N.pl3  1 <0>      -0.8800
    2 C2        0.0021    -0.0041     0.0020 C.ar   1 <0>       0.1900
    3 C3       -1.1883    -0.7156     0.0038 C.ar   1 <0>      -0.1800
    4 C4       -1.1669    -2.0981    -0.0043 C.ar   1 <0>      -0.1100
    5 C5        0.0386    -2.7739    -0.0137 C.ar   1 <0>      -0.1400
    6 C6        1.2299    -2.0708    -0.0151 C.ar   1 <0>      -0.1300
    7 C7        1.2172    -0.6862    -0.0132 C.ar   1 <0>       0.0600
    8 O8        2.3878     0.0063    -0.0146 O.3    1 <0>      -0.3100
    9 C9        3.5944    -0.7592    -0.0179 C.3    1 <0>       0.2200
   10 H10       3.5840    -1.4506    -0.8605 H      1 <0>       0.0700
   11 O11       3.6944    -1.4964     1.2022 O.3    1 <0>      -0.3500
   12 C12       4.8585    -2.3204     1.2923 C.3    1 <0>       0.0000
   13 H13       4.8648    -3.0322     0.4668 H      1 <0>       0.0700
   14 C14       4.8449    -3.0682     2.6006 C.2    1 <0>       0.5100
   15 O15       3.9236    -2.9103     3.3834 O.co2  1 <0>      -0.6600
   16 O16       5.7551    -3.8312     2.8762 O.co2  1 <0>      -0.6800
   17 C17       6.1104    -1.4423     1.2189 C.3    1 <0>       0.0700
   18 H18       6.1252    -0.7575     2.0668 H      1 <0>       0.0700
   19 O19       7.2759    -2.2686     1.2521 O.3    1 <0>      -0.5700
   20 C20       6.0866    -0.6407    -0.0861 C.3    1 <0>       0.1300
   21 H21       6.1218    -1.3242    -0.9345 H      1 <0>       0.0700
   22 O22       7.2153     0.2346    -0.1302 O.3    1 <0>      -0.5500
   23 C23       4.7955     0.1816    -0.1442 C.3    1 <0>       0.1000
   24 H24       4.7836     0.8993     0.6761 H      1 <0>       0.0800
   25 O25       4.7291     0.8788    -1.3898 O.3    1 <0>      -0.5500
   26 H26       0.8164     1.8918     0.0044 H      1 <0>       0.4000
   27 H27      -0.8634     1.8689     0.0163 H      1 <0>       0.3900
   28 H28      -2.1318    -0.1900     0.0118 H      1 <0>       0.1200
   29 H29      -2.0946    -2.6512    -0.0030 H      1 <0>       0.1200
   30 H30       0.0506    -3.8538    -0.0197 H      1 <0>       0.1200
   31 H31       2.1703    -2.6020    -0.0217 H      1 <0>       0.1300
   32 H32       7.3528    -2.8082     2.0508 H      1 <0>       0.4000
   33 H33       8.0676    -0.2204    -0.0911 H      1 <0>       0.3900
   34 H34       3.9353     1.4211    -1.4951 H      1 <0>       0.3800
@<TRIPOS>BOND
   1    1    2 1
   2    1   26 1
   3    1   27 1
   4    2    7 ar
   5    2    3 ar
   6    3    4 ar
   7    3   28 1
   8    4    5 ar
   9    4   29 1
  10    5    6 ar
  11    5   30 1
  12    6    7 ar
  13    6   31 1
  14    7    8 1
  15    8    9 1
  16    9   10 1
  17    9   23 1
  18    9   11 1
  19   11   12 1
  20   12   13 1
  21   12   14 1
  22   12   17 1
  23   14   15 ar
  24   14   16 ar
  25   17   18 1
  26   17   19 1
  27   17   20 1
  28   19   32 1
  29   20   21 1
  30   20   22 1
  31   20   23 1
  32   22   33 1
  33   23   24 1
  34   23   25 1
  35   25   34 1
@<TRIPOS>MOLECULE
ZINC000005733445
  38   39    0    0    0
SMALL
USER_CHARGES
NO_NAME
@<TRIPOS>ATOM
    1 C1       -0.0173     1.4248     0.0099 C.3    1 <0>       0.0300
    2 O2        0.0021    -0.0041     0.0020 O.3    1 <0>      -0.3200
    3 C3       -1.2010    -0.6378     0.0101 C.ar   1 <0>       0.1000
    4 C4       -2.3743     0.1017     0.0195 C.ar   1 <0>      -0.1700
    5 C5       -3.5964    -0.5421     0.0278 C.ar   1 <0>      -0.1100
    6 C6       -3.6502    -1.9280     0.0261 C.ar   1 <0>       0.0900
    7 O7       -4.8533    -2.5618     0.0346 O.3    1 <0>      -0.3000
    8 C8       -4.8338    -3.9907     0.0323 C.3    1 <0>       0.2300
    9 H9       -4.2329    -4.3474     0.8688 H      1 <0>       0.0800
   10 O10      -4.2682    -4.4576    -1.1941 O.3    1 <0>      -0.3700
   11 C11      -4.1774    -5.8805    -1.2904 C.3    1 <0>       0.1100
   12 H12      -3.5681    -6.2621    -0.4711 H      1 <0>       0.0800
   13 C13      -3.5342    -6.2616    -2.6252 C.3    1 <0>       0.0900
   14 O14      -2.1842    -5.7940    -2.6542 O.3    1 <0>      -0.5700
   15 C15      -5.5808    -6.4867    -1.2081 C.3    1 <0>       0.0900
   16 H16      -6.1785    -6.1371    -2.0499 H      1 <0>       0.0800
   17 O17      -5.4884    -7.9122    -1.2474 O.3    1 <0>      -0.5500
   18 C18      -6.2405    -6.0512     0.1040 C.3    1 <0>       0.0900
   19 H19      -5.6702    -6.4427     0.9463 H      1 <0>       0.0800
   20 O20      -7.5772    -6.5538     0.1568 O.3    1 <0>      -0.5500
   21 C21      -6.2636    -4.5209     0.1680 C.3    1 <0>       0.0600
   22 H22      -6.8750    -4.1315    -0.6459 H      1 <0>       0.0900
   23 O23      -6.8126    -4.1036     1.4196 O.3    1 <0>      -0.5500
   24 C24      -2.4769    -2.6676     0.0153 C.ar   1 <0>      -0.1400
   25 C25      -1.2548    -2.0238     0.0032 C.ar   1 <0>      -0.1100
   26 H26       1.0053     1.8021     0.0021 H      1 <0>       0.1000
   27 H27      -0.5445     1.7859    -0.8732 H      1 <0>       0.0600
   28 H28      -0.5275     1.7763     0.9067 H      1 <0>       0.0600
   29 H29      -2.3325     1.1809     0.0208 H      1 <0>       0.1400
   30 H30      -4.5101     0.0337     0.0358 H      1 <0>       0.1300
   31 H31      -3.5457    -7.3458    -2.7377 H      1 <0>       0.0800
   32 H32      -4.0943    -5.8057    -3.4417 H      1 <0>       0.0600
   33 H33      -1.7138    -6.0009    -3.4733 H      1 <0>       0.3900
   34 H34      -6.3424    -8.3632    -1.1992 H      1 <0>       0.4000
   35 H35      -8.0555    -6.3153     0.9627 H      1 <0>       0.4000
   36 H36      -6.8575    -3.1438     1.5290 H      1 <0>       0.4000
   37 H37      -2.5187    -3.7467     0.0136 H      1 <0>       0.1400
   38 H38      -0.3412    -2.5996    -0.0053 H      1 <0>       0.1400
@<TRIPOS>BOND
   1    1    2 1
   2    1   26 1
   3    1   27 1
   4    1   28 1
   5    2    3 1
   6    3   25 ar
   7    3    4 ar
   8    4    5 ar
   9    4   29 1
  10    5    6 ar
  11    5   30 1
  12    6    7 1
  13    6   24 ar
  14    7    8 1
  15    8    9 1
  16    8   21 1
  17    8   10 1
  18   10   11 1
  19   11   12 1
  20   11   13 1
  21   11   15 1
  22   13   14 1
  23   13   31 1
  24   13   32 1
  25   14   33 1
  26   15   16 1
  27   15   17 1
  28   15   18 1
  29   17   34 1
  30   18   19 1
  31   18   20 1
  32   18   21 1
  33   20   35 1
  34   21   22 1
  35   21   23 1
  36   23   36 1
  37   24   25 ar
  38   24   37 1
  39   25   38 1
@<TRIPOS>MOLECULE
ZINC000005925089
  24   24    0    0    0
SMALL
NO_CHARGES
@<TRIPOS>ATOM
   1 N1            -0.0204     1.6518     0.0111 N.am    
   2 S2             0.0021    -0.0041     0.0020 S.o2    
   3 O3            -0.5249    -0.4194     1.2546 O.2     
   4 O4            -0.5488    -0.4060    -1.2447 O.2     
   5 C5             1.6920    -0.5027    -0.0168 C.2     
   6 N6             2.7207     0.2843    -0.0167 N.2     
   7 N7             3.8553    -0.2692    -0.0317 N.2     
   8 C8             3.8927    -1.5675    -0.0457 C.2     
   9 N9             5.0457    -2.3451    -0.0625 N.am    
  10 C10            6.2570    -1.7542    -0.0657 C.2     
  11 O11            6.3416    -0.5444    -0.0540 O.2     
  12 C12            7.5063    -2.5968    -0.0838 C.3     
  13 C13            8.7357    -1.6860    -0.0839 C.3     
  14 C14            9.9851    -2.5286    -0.1021 C.2     
  15 O15            9.9000    -3.7448    -0.1139 O.co2   
  16 O16           11.0809    -1.9941    -0.1050 O.co2   
  17 S17            2.2866    -2.1633    -0.0314 S.3     
  18 H18            0.8130     2.1481     0.0058 H       
  19 H19           -0.8669     2.1253     0.0177 H       
  20 H20            4.9780    -3.3127    -0.0718 H       
  21 H21            7.5270    -3.2350     0.7995 H       
  22 H22            7.5134    -3.2168    -0.9803 H       
  23 H23            8.7151    -1.0478    -0.9673 H       
  24 H24            8.7287    -1.0660     0.8125 H       
@<TRIPOS>BOND
   1    1    2 am
   2    1   18 1
   3    1   19 1
   4    2    3 2
   5    2    4 2
   6    2    5 1
   7    5   17 1
   8    5    6 2
   9    6    7 1
  10    7    8 2
  11    8    9 1
  12    8   17 1
  13    9   10 am
  14    9   20 1
  15   10   11 2
  16   10   12 1
  17   12   13 1
  18   12   21 1
  19   12   22 1
  20   13   14 1
  21   13   23 1
  22   13   24 1
  23   14   15 ar
  24   14   16 ar
@<TRIPOS>MOLECULE
ZINC000005996572
  33   34    0    0    0
SMALL
NO_CHARGES
@<TRIPOS>ATOM
   1 C1            -0.0178     1.4608     0.0101 C.3     
   2 N2             0.0021    -0.0041     0.0020 N.pl3   
   3 C3             0.5971    -0.6782    -1.0391 C.2     
   4 N4             1.1590    -0.0055    -2.0349 N.2     
   5 C5             1.7383    -0.6477    -3.0477 C.2     
   6 O6             2.2484    -0.0066    -3.9515 O.2     
   7 N7             1.7705    -1.9923    -3.0902 N.am    
   8 C8             2.4156    -2.6705    -4.2173 C.3     
   9 H9             2.4438    -3.7473    -4.0505 H       
  10 O10            3.7471    -2.1534    -4.4272 O.3     
  11 C11            4.1081    -2.4620    -5.7839 C.3     
  12 H12            4.6426    -3.4113    -5.8185 H       
  13 C13            4.9887    -1.3483    -6.3541 C.3     
  14 O14            6.2385    -1.3277    -5.6616 O.3     
  15 C15            2.8009    -2.5668    -6.5932 C.3     
  16 H16            2.7650    -1.7947    -7.3617 H       
  17 O17            2.6799    -3.8632    -7.1823 O.3     
  18 C18            1.6831    -2.3426    -5.5433 C.3     
  19 H19            1.3439    -1.3067    -5.5514 H       
  20 O20            0.5900    -3.2363    -5.7634 O.3     
  21 C21            1.2067    -2.7264    -2.0902 C.2     
  22 C22            0.6185    -2.0880    -1.0509 C.2     
  23 H23            1.0048     1.8381     0.0023 H       
  24 H24           -0.5450     1.8219    -0.8730 H       
  25 H25           -0.5280     1.8123     0.9069 H       
  26 H26           -0.4044    -0.4986     0.7308 H       
  27 H27            5.1638    -1.5304    -7.4144 H       
  28 H28            4.4877    -0.3885    -6.2282 H       
  29 H29            6.8487    -0.6445    -5.9716 H       
  30 H30            3.3870    -4.0795    -7.8055 H       
  31 H31            0.1582    -3.1257    -6.6216 H       
  32 H32            1.2324    -3.8055    -2.1240 H       
  33 H33            0.1659    -2.6500    -0.2474 H       
@<TRIPOS>BOND
   1    1    2 1
   2    1   23 1
   3    1   24 1
   4    1   25 1
   5    2    3 1
   6    2   26 1
   7    3   22 1
   8    3    4 2
   9    4    5 1
  10    5    6 2
  11    5    7 am
  12    7    8 1
  13    7   21 1
  14    8    9 1
  15    8   18 1
  16    8   10 1
  17   10   11 1
  18   11   12 1
  19   11   13 1
  20   11   15 1
  21   13   14 1
  22   13   27 1
  23   13   28 1
  24   14   29 1
  25   15   16 1
  26   15   17 1
  27   15   18 1
  28   17   30 1
  29   18   19 1
  30   18   20 1
  31   20   31 1
  32   21   22 2
  33   21   32 1
  34   22   33 1
@<TRIPOS>MOLECULE
ZINC000006019440
27    27    1     0     0
SMALL
USER_CHARGES
@<TRIPOS>ATOM
1      C1     -0.0225    1.8097    0.0120 C.3      1 ZINC000006019440   -0.6600
2      S2      0.0021   -0.0041    0.0020 S.o2     1 ZINC000006019440    2.4200
3      O3      0.8010   -0.4520    1.0884 O.2      1 ZINC000006019440   -0.9400
4      O4     -1.3336   -0.4743   -0.1172 O.2      1 ZINC000006019440   -0.9400
5      C5      0.8798   -0.3584   -1.5454 C.3      1 ZINC000006019440   -0.6100
6      C6      0.9992   -1.8727   -1.7288 C.3      1 ZINC000006019440   -0.1100
7      C7      1.7395   -2.1716   -3.0340 C.3      1 ZINC000006019440    0.0800
8      H8      2.7003   -1.6568   -3.0328 H        1 ZINC000006019440    0.1000
9      C9      1.9654   -3.6566   -3.1547 C.2      1 ZINC000006019440    0.4900
10     O10     1.3547   -4.3002   -3.9910 O.co2    1 ZINC000006019440   -0.6700
11     O11     2.7588   -4.2146   -2.4160 O.co2    1 ZINC000006019440   -0.6800
12     N12     0.9374   -1.7059   -4.1680 N.am     1 ZINC000006019440   -0.5600
13     C13    -0.3043   -2.1292   -4.4655 C.2      1 ZINC000006019440    0.5400
14     O14    -0.9414   -2.9541   -3.8430 O.2      1 ZINC000006019440   -0.4300
15     C15    -0.7620   -1.4184   -5.6798 C.2      1 ZINC000006019440   -0.1300
16     C16     0.2365   -0.5998   -6.0500 C.2      1 ZINC000006019440   -0.1600
17     C17     1.3276   -0.7853   -5.0679 C.2      1 ZINC000006019440    0.5400
18     O18     2.3966   -0.2099   -5.0772 O.2      1 ZINC000006019440   -0.4800
19     H19     1.0001    2.1870    0.0043 H        1 ZINC000006019440    0.1300
20     H20    -0.5497    2.1708   -0.8711 H        1 ZINC000006019440    0.1300
21     H21    -0.5327    2.1613    0.9088 H        1 ZINC000006019440    0.1300
22     H22     0.3261    0.0664   -2.3827 H        1 ZINC000006019440    0.1200
23     H23     1.8759    0.0826   -1.5074 H        1 ZINC000006019440    0.1300
24     H24     1.5529   -2.2975   -0.8916 H        1 ZINC000006019440    0.1000
25     H25     0.0031   -2.3137   -1.7669 H        1 ZINC000006019440    0.0900
26     H26    -1.7154   -1.5355   -6.1737 H        1 ZINC000006019440    0.1800
27     H27     0.2406    0.0682   -6.8986 H        1 ZINC000006019440    0.1800
@<TRIPOS>BOND
1     1     2     1
2     1     19    1
3     1     20    1
4     1     21    1
5     2     3     2
6     2     4     2
7     2     5     1
8     5     6     1
9     5     22    1
10    5     23    1
11    6     7     1
12    6     24    1
13    6     25    1
14    7     8     1
15    7     9     1
16    7     12    1
17    9     10    ar
18    9     11    ar
19    12    17    am
20    12    13    am
21    13    14    2
22    13    15    1
23    15    16    2
24    15    26    1
25    16    17    1
26    16    27    1
27    17    18    2
@<TRIPOS>SUBSTRUCTURE
1   ZINC000006019440 1     RESIDUE    1   A     ZIN   1
@<TRIPOS>MOLECULE
ZINC000006090947
  30   31    0    0    0
SMALL
USER_CHARGES
NO_NAME
@<TRIPOS>ATOM
    1 O1        0.0021    -0.0041     0.0020 O.2    1 <0>      -0.4300
    2 C2       -0.0144     1.2095     0.0087 C.2    1 <0>       0.4000
    3 C3        1.2418     1.9577     0.0007 C.2    1 <0>      -0.3500
    4 C4        1.2471     3.3436     0.0140 C.2    1 <0>       0.2400
    5 N5        2.4327     4.0025     0.0064 N.am   1 <0>      -0.5200
    6 C6        2.4370     5.4674     0.0205 C.3    1 <0>       0.3000
    7 H7        1.4200     5.8499    -0.0655 H      1 <0>       0.1300
    8 C8        3.1009     5.9909     1.3133 C.3    1 <0>      -0.1900
    9 C9        3.8811     7.2431     0.8543 C.3    1 <0>       0.0900
   10 H10       4.9483     7.1159     1.0358 H      1 <0>       0.0800
   11 O11       3.3960     8.4086     1.5237 O.3    1 <0>      -0.5600
   12 C12       3.5962     7.3280    -0.6616 C.3    1 <0>       0.0900
   13 H13       2.7577     7.9974    -0.8532 H      1 <0>       0.1000
   14 C14       4.8409     7.8069    -1.4115 C.3    1 <0>       0.0800
   15 O15       4.5239     7.9900    -2.7928 O.3    1 <0>      -0.5700
   16 O16       3.2586     5.9780    -1.0520 O.3    1 <0>      -0.3400
   17 C17       3.6020     3.3440    -0.0131 C.2    1 <0>       0.7000
   18 O18       4.6358     3.9831    -0.0182 O.2    1 <0>      -0.5100
   19 N19       3.6683     2.0018    -0.0267 N.am   1 <0>      -0.6600
   20 C20       2.5402     1.2607    -0.0154 C.2    1 <0>       0.5600
   21 O21       2.5940     0.0454    -0.0273 O.2    1 <0>      -0.4700
   22 H22      -0.9569     1.7367     0.0160 H      1 <0>       0.1200
   23 H23       0.3174     3.8929     0.0297 H      1 <0>       0.2000
   24 H24       2.3436     6.2612     2.0491 H      1 <0>       0.1000
   25 H25       3.7825     5.2447     1.7218 H      1 <0>       0.1000
   26 H26       3.4966     8.3805     2.4851 H      1 <0>       0.3900
   27 H27       5.1789     8.7526    -0.9878 H      1 <0>       0.0700
   28 H28       5.6316     7.0627    -1.3157 H      1 <0>       0.0600
   29 H29       5.2681     8.2937    -3.3303 H      1 <0>       0.3900
   30 H30       4.5330     1.5625    -0.0410 H      1 <0>       0.4300
@<TRIPOS>BOND
   1    1    2 2
   2    2    3 1
   3    2   22 1
   4    3   20 1
   5    3    4 2
   6    4    5 1
   7    4   23 1
   8    5    6 1
   9    5   17 am
  10    6    7 1
  11    6   16 1
  12    6    8 1
  13    8    9 1
  14    8   24 1
  15    8   25 1
  16    9   10 1
  17    9   11 1
  18    9   12 1
  19   11   26 1
  20   12   13 1
  21   12   14 1
  22   12   16 1
  23   14   15 1
  24   14   27 1
  25   14   28 1
  26   15   29 1
  27   17   18 2
  28   17   19 am
  29   19   20 am
  30   19   30 1
  31   20   21 2
@<TRIPOS>MOLECULE
ZINC000006091560
  30   31    0    0    0
SMALL
USER_CHARGES
NO_NAME
@<TRIPOS>ATOM
    1 N1        0.0173    -1.1279    -0.0042 N.pl3  1 <0>      -0.1600
    2 N2        0.0021    -0.0041     0.0020 N.1    1 <0>       0.2800
    3 N3       -0.0132     1.1198     0.0082 N.2    1 <0>      -0.3500
    4 C4        1.2455     1.8695     0.0002 C.3    1 <0>       0.0600
    5 H5        1.8744     1.5612    -0.8350 H      1 <0>       0.1100
    6 C6        0.9798     3.3960    -0.0414 C.3    1 <0>       0.3200
    7 H7        0.1029     3.6493     0.5544 H      1 <0>       0.1500
    8 N8        0.8122     3.8529    -1.4232 N.am   1 <0>      -0.5300
    9 C9        1.8630     3.7720    -2.2960 C.2    1 <0>       0.1700
   10 C10       1.7083     4.1928    -3.5696 C.2    1 <0>      -0.2800
   11 C11       0.4553     4.7114    -3.9763 C.2    1 <0>       0.5500
   12 O12       0.2916     5.0967    -5.1199 O.2    1 <0>      -0.5100
   13 N13      -0.5553     4.7743    -3.0859 N.am   1 <0>      -0.6600
   14 C14      -0.3750     4.3431    -1.8237 C.2    1 <0>       0.7100
   15 O15      -1.2955     4.4056    -1.0317 O.2    1 <0>      -0.5200
   16 O16       2.1726     3.9615     0.5434 O.3    1 <0>      -0.3500
   17 C17       2.5408     3.1161     1.6461 C.3    1 <0>       0.0600
   18 H18       2.1000     3.4961     2.5677 H      1 <0>       0.1100
   19 C19       4.0642     3.0687     1.7792 C.3    1 <0>       0.0800
   20 O20       4.5497     4.3585     2.1572 O.3    1 <0>      -0.5600
   21 C21       1.9942     1.7064     1.3453 C.3    1 <0>       0.0600
   22 H22       2.8126     0.9936     1.2435 H      1 <0>       0.0900
   23 O23       1.0941     1.2890     2.3738 O.3    1 <0>      -0.5400
   24 H24       2.8116     3.3738    -1.9675 H      1 <0>       0.1800
   25 H25       2.5295     4.1348    -4.2686 H      1 <0>       0.1800
   26 H26      -1.4167     5.1284    -3.3571 H      1 <0>       0.4300
   27 H27       4.3399     2.3392     2.5407 H      1 <0>       0.0700
   28 H28       4.5036     2.7807     0.8242 H      1 <0>       0.0600
   29 H29       5.5102     4.4025     2.2602 H      1 <0>       0.3900
   30 H30       1.4992     1.2270     3.2497 H      1 <0>       0.4000
@<TRIPOS>BOND
   1    1    2 2
   2    2    3 2
   3    3    4 1
   4    4    5 1
   5    4   21 1
   6    4    6 1
   7    6    7 1
   8    6    8 1
   9    6   16 1
  10    8   14 am
  11    8    9 1
  12    9   10 2
  13    9   24 1
  14   10   11 1
  15   10   25 1
  16   11   12 2
  17   11   13 am
  18   13   14 am
  19   13   26 1
  20   14   15 2
  21   16   17 1
  22   17   18 1
  23   17   19 1
  24   17   21 1
  25   19   20 1
  26   19   27 1
  27   19   28 1
  28   20   29 1
  29   21   22 1
  30   21   23 1
  31   23   30 1
@<TRIPOS>MOLECULE
ZINC000006562433
42    42    1     0     0
SMALL
USER_CHARGES
@<TRIPOS>ATOM
1      O1     -0.2240   -0.8266   -1.0571 O.co2    1 ZINC000006562433   -0.7000
2      C2     -0.1144    0.3856   -0.9866 C.2      1 ZINC000006562433    0.4900
3      O3      0.9829    0.9058   -1.0953 O.co2    1 ZINC000006562433   -0.7000
4      C4     -1.3360    1.2414   -0.7712 C.3      1 ZINC000006562433   -0.1900
5      C5     -2.5743    0.3478   -0.6758 C.3      1 ZINC000006562433   -0.0900
6      C6     -3.8145    1.2167   -0.4571 C.3      1 ZINC000006562433   -0.1200
7      C7     -5.0528    0.3231   -0.3617 C.3      1 ZINC000006562433   -0.1400
8      C8     -6.2931    1.1920   -0.1430 C.3      1 ZINC000006562433   -0.0200
9      N9     -7.4820    0.3340   -0.0514 N.4      1 ZINC000006562433   -0.3700
10     H10    -7.5428   -0.2440   -0.8761 H        1 ZINC000006562433    0.4500
11     C11    -7.3760   -0.5211    1.1369 C.3      1 ZINC000006562433    0.0000
12     C12    -8.5725   -1.4734    1.1931 C.3      1 ZINC000006562433    0.0600
13     H13    -8.4928   -2.1062    2.0769 H        1 ZINC000006562433    0.1000
14     O14    -8.5874   -2.2906    0.0209 O.3      1 ZINC000006562433   -0.5400
15     C15    -9.8655   -0.6560    1.2642 C.3      1 ZINC000006562433    0.0300
16     H16    -9.8771   -0.0715    2.1842 H        1 ZINC000006562433    0.0800
17     O17   -10.9899   -1.5376    1.2440 O.3      1 ZINC000006562433   -0.5500
18     C18    -9.9294    0.2859    0.0583 C.3      1 ZINC000006562433    0.1100
19     H19   -10.8197    0.9105    0.1311 H        1 ZINC000006562433    0.1000
20     O20    -9.9829   -0.4827   -1.1452 O.3      1 ZINC000006562433   -0.5200
21     C21    -8.6825    1.1729    0.0460 C.3      1 ZINC000006562433    0.0400
22     H22    -8.6446    1.7584    0.9646 H        1 ZINC000006562433    0.1500
23     C23    -8.7403    2.1162   -1.1572 C.3      1 ZINC000006562433    0.0500
24     O24    -8.8600    1.3502   -2.3577 O.3      1 ZINC000006562433   -0.5500
25     H25    -1.2245    1.8077    0.1534 H        1 ZINC000006562433    0.0600
26     H26    -1.4489    1.9306   -1.6081 H        1 ZINC000006562433    0.0600
27     H27    -2.6858   -0.2185   -1.6004 H        1 ZINC000006562433    0.0600
28     H28    -2.4614   -0.3414    0.1611 H        1 ZINC000006562433    0.0600
29     H29    -3.7030    1.7830    0.4675 H        1 ZINC000006562433    0.0700
30     H30    -3.9275    1.9059   -1.2940 H        1 ZINC000006562433    0.0700
31     H31    -5.1644   -0.2432   -1.2863 H        1 ZINC000006562433    0.0900
32     H32    -4.9399   -0.3661    0.4752 H        1 ZINC000006562433    0.0800
33     H33    -6.1815    1.7583    0.7816 H        1 ZINC000006562433    0.1300
34     H34    -6.4060    1.8812   -0.9799 H        1 ZINC000006562433    0.1300
35     H35    -6.4537   -1.0999    1.0864 H        1 ZINC000006562433    0.1500
36     H36    -7.3650    0.1009    2.0319 H        1 ZINC000006562433    0.1400
37     H37    -9.3211   -2.9197   -0.0107 H        1 ZINC000006562433    0.4000
38     H38   -11.0099   -2.1665    1.9782 H        1 ZINC000006562433    0.4000
39     H39   -10.7481   -1.0713   -1.2023 H        1 ZINC000006562433    0.4000
40     H40    -9.6021    2.7765   -1.0602 H        1 ZINC000006562433    0.0900
41     H41    -7.8285    2.7121   -1.1959 H        1 ZINC000006562433    0.0800
42     H42    -8.9022    1.8845   -3.1626 H        1 ZINC000006562433    0.4000
@<TRIPOS>BOND
1     1     2     ar
2     2     3     ar
3     2     4     1
4     4     5     1
5     4     25    1
6     4     26    1
7     5     6     1
8     5     27    1
9     5     28    1
10    6     7     1
11    6     29    1
12    6     30    1
13    7     8     1
14    7     31    1
15    7     32    1
16    8     9     1
17    8     33    1
18    8     34    1
19    9     10    1
20    9     21    1
21    9     11    1
22    11    12    1
23    11    35    1
24    11    36    1
25    12    13    1
26    12    14    1
27    12    15    1
28    14    37    1
29    15    16    1
30    15    17    1
31    15    18    1
32    17    38    1
33    18    19    1
34    18    20    1
35    18    21    1
36    20    39    1
37    21    22    1
38    21    23    1
39    23    24    1
40    23    40    1
41    23    41    1
42    24    42    1
@<TRIPOS>SUBSTRUCTURE
1   ZINC000006562433 1     RESIDUE    1   A     ZIN   1
@<TRIPOS>MOLECULE
ZINC000006562434
42    42    1     0     0
SMALL
USER_CHARGES
@<TRIPOS>ATOM
1      O1     -0.2240   -0.8266   -1.0571 O.co2    1 ZINC000006562434   -0.7000
2      C2     -0.1144    0.3856   -0.9866 C.2      1 ZINC000006562434    0.4900
3      O3      0.9829    0.9058   -1.0953 O.co2    1 ZINC000006562434   -0.7000
4      C4     -1.3360    1.2414   -0.7712 C.3      1 ZINC000006562434   -0.1900
5      C5     -2.5743    0.3478   -0.6758 C.3      1 ZINC000006562434   -0.0900
6      C6     -3.8145    1.2167   -0.4571 C.3      1 ZINC000006562434   -0.1200
7      C7     -5.0528    0.3231   -0.3617 C.3      1 ZINC000006562434   -0.1400
8      C8     -6.2931    1.1920   -0.1430 C.3      1 ZINC000006562434   -0.0200
9      N9     -7.4820    0.3340   -0.0514 N.4      1 ZINC000006562434   -0.3700
10     H10    -7.5428   -0.2440   -0.8761 H        1 ZINC000006562434    0.4400
11     C11    -7.3760   -0.5211    1.1369 C.3      1 ZINC000006562434    0.0000
12     C12    -8.5725   -1.4734    1.1931 C.3      1 ZINC000006562434    0.0600
13     H13    -8.4928   -2.1062    2.0769 H        1 ZINC000006562434    0.1000
14     O14    -8.5874   -2.2906    0.0209 O.3      1 ZINC000006562434   -0.5400
15     C15    -9.8655   -0.6560    1.2642 C.3      1 ZINC000006562434    0.0300
16     H16   -10.7232   -1.3284    1.2473 H        1 ZINC000006562434    0.0900
17     O17    -9.8816    0.1088    2.4712 O.3      1 ZINC000006562434   -0.5500
18     C18    -9.9294    0.2859    0.0583 C.3      1 ZINC000006562434    0.1100
19     H19   -10.8197    0.9105    0.1311 H        1 ZINC000006562434    0.1000
20     O20    -9.9829   -0.4827   -1.1452 O.3      1 ZINC000006562434   -0.5200
21     C21    -8.6825    1.1729    0.0460 C.3      1 ZINC000006562434    0.0500
22     H22    -8.6446    1.7584    0.9646 H        1 ZINC000006562434    0.1600
23     C23    -8.7403    2.1162   -1.1572 C.3      1 ZINC000006562434    0.0500
24     O24    -8.8600    1.3502   -2.3577 O.3      1 ZINC000006562434   -0.5500
25     H25    -1.2245    1.8077    0.1534 H        1 ZINC000006562434    0.0600
26     H26    -1.4489    1.9306   -1.6081 H        1 ZINC000006562434    0.0600
27     H27    -2.6858   -0.2185   -1.6004 H        1 ZINC000006562434    0.0600
28     H28    -2.4614   -0.3414    0.1611 H        1 ZINC000006562434    0.0600
29     H29    -3.7030    1.7830    0.4675 H        1 ZINC000006562434    0.0700
30     H30    -3.9275    1.9059   -1.2940 H        1 ZINC000006562434    0.0700
31     H31    -5.1644   -0.2432   -1.2863 H        1 ZINC000006562434    0.0900
32     H32    -4.9399   -0.3661    0.4752 H        1 ZINC000006562434    0.0800
33     H33    -6.1815    1.7583    0.7816 H        1 ZINC000006562434    0.1300
34     H34    -6.4060    1.8812   -0.9799 H        1 ZINC000006562434    0.1300
35     H35    -6.4537   -1.0999    1.0864 H        1 ZINC000006562434    0.1400
36     H36    -7.3650    0.1009    2.0319 H        1 ZINC000006562434    0.1400
37     H37    -9.3211   -2.9197   -0.0107 H        1 ZINC000006562434    0.4000
38     H38    -9.8379   -0.4255    3.2760 H        1 ZINC000006562434    0.4000
39     H39   -10.7481   -1.0713   -1.2023 H        1 ZINC000006562434    0.3900
40     H40    -9.6021    2.7765   -1.0602 H        1 ZINC000006562434    0.0900
41     H41    -7.8285    2.7121   -1.1959 H        1 ZINC000006562434    0.0700
42     H42    -8.9022    1.8845   -3.1626 H        1 ZINC000006562434    0.4000
@<TRIPOS>BOND
1     1     2     ar
2     2     3     ar
3     2     4     1
4     4     5     1
5     4     25    1
6     4     26    1
7     5     6     1
8     5     27    1
9     5     28    1
10    6     7     1
11    6     29    1
12    6     30    1
13    7     8     1
14    7     31    1
15    7     32    1
16    8     9     1
17    8     33    1
18    8     34    1
19    9     10    1
20    9     21    1
21    9     11    1
22    11    12    1
23    11    35    1
24    11    36    1
25    12    13    1
26    12    14    1
27    12    15    1
28    14    37    1
29    15    16    1
30    15    17    1
31    15    18    1
32    17    38    1
33    18    19    1
34    18    20    1
35    18    21    1
36    20    39    1
37    21    22    1
38    21    23    1
39    23    24    1
40    23    40    1
41    23    41    1
42    24    42    1
@<TRIPOS>SUBSTRUCTURE
1   ZINC000006562434 1     RESIDUE    1   A     ZIN   1
@<TRIPOS>MOLECULE
ZINC000006585367
  33   35    0    0    0
SMALL
USER_CHARGES
NO_NAME
@<TRIPOS>ATOM
    1 N1       -0.0165     1.3681     0.0096 N.pl3  1 <0>      -0.8200
    2 C2        0.0021    -0.0041     0.0020 C.2    1 <0>       0.6600
    3 N3       -1.1382    -0.6578     0.0040 N.2    1 <0>      -0.5800
    4 C4       -1.1685    -1.9955    -0.0031 C.2    1 <0>       0.3100
    5 C5        0.0312    -2.7162    -0.0129 C.2    1 <0>      -0.1400
    6 N6       -0.2906    -4.0328    -0.0184 N.2    1 <0>      -0.4300
    7 C7       -1.5853    -4.1598    -0.0128 C.2    1 <0>       0.2400
    8 N8       -2.1710    -2.9271    -0.0033 N.pl3  1 <0>      -0.4400
    9 C9       -3.6099    -2.6516     0.0052 C.3    1 <0>       0.3200
   10 H10      -3.8269    -1.7691     0.6070 H      1 <0>       0.1300
   11 O11      -4.3435    -3.7943     0.4956 O.3    1 <0>      -0.3500
   12 C12      -5.6917    -3.6657     0.0139 C.3    1 <0>       0.0600
   13 H13      -6.3034    -3.1539     0.7567 H      1 <0>       0.1000
   14 C14      -6.2750    -5.0503    -0.2756 C.3    1 <0>       0.0800
   15 O15      -6.4145    -5.7738     0.9488 O.3    1 <0>      -0.5600
   16 C16      -5.6375    -2.8349    -1.2829 C.3    1 <0>       0.0500
   17 H17      -5.9782    -3.4289    -2.1310 H      1 <0>       0.0900
   18 O18      -6.4284    -1.6519    -1.1523 O.3    1 <0>      -0.5500
   19 C19      -4.1394    -2.4703    -1.4401 C.3    1 <0>       0.0700
   20 H20      -4.0230    -1.4395    -1.7748 H      1 <0>       0.1000
   21 O21      -3.4865    -3.3717    -2.3364 O.3    1 <0>      -0.5300
   22 C22       1.2511    -2.0002    -0.0145 C.2    1 <0>       0.6000
   23 O23       2.3198    -2.5868    -0.0229 O.2    1 <0>      -0.5100
   24 N24       1.2025    -0.6496    -0.0129 N.am   1 <0>      -0.6600
   25 H25       0.8168     1.8644     0.0043 H      1 <0>       0.4200
   26 H26      -0.8631     1.8416     0.0162 H      1 <0>       0.4300
   27 H27      -2.1170    -5.0999    -0.0150 H      1 <0>       0.2200
   28 H28      -7.2519    -4.9417    -0.7468 H      1 <0>       0.0600
   29 H29      -5.6073    -5.5933    -0.9444 H      1 <0>       0.0600
   30 H30      -6.7797    -6.6627     0.8409 H      1 <0>       0.3900
   31 H31      -7.3671    -1.8219    -0.9941 H      1 <0>       0.3900
   32 H32      -3.8457    -3.3628    -3.2341 H      1 <0>       0.3900
   33 H33       2.0260    -0.1371    -0.0140 H      1 <0>       0.4200
@<TRIPOS>BOND
   1    1    2 1
   2    1   25 1
   3    1   26 1
   4    2   24 1
   5    2    3 2
   6    3    4 1
   7    4    8 1
   8    4    5 2
   9    5    6 1
  10    5   22 1
  11    6    7 2
  12    7    8 1
  13    7   27 1
  14    8    9 1
  15    9   10 1
  16    9   19 1
  17    9   11 1
  18   11   12 1
  19   12   13 1
  20   12   14 1
  21   12   16 1
  22   14   15 1
  23   14   28 1
  24   14   29 1
  25   15   30 1
  26   16   17 1
  27   16   18 1
  28   16   19 1
  29   18   31 1
  30   19   20 1
  31   19   21 1
  32   21   32 1
  33   22   23 2
  34   22   24 am
  35   24   33 1
@<TRIPOS>MOLECULE
ZINC000008580514
  32   34    0    0    0
SMALL
USER_CHARGES
NO_NAME
@<TRIPOS>ATOM
    1 N1       -0.0167     1.3797     0.0096 N.pl3  1 <0>      -0.8200
    2 C2        0.0021    -0.0041     0.0020 C.ar   1 <0>       0.5100
    3 C3       -1.1953    -0.7393     0.0036 C.ar   1 <0>      -0.1000
    4 N4       -2.5111    -0.4171     0.0123 N.2    1 <0>      -0.4700
    5 C5       -3.2237    -1.5060     0.0097 C.2    1 <0>       0.2900
    6 N6       -2.4068    -2.5973    -0.0008 N.pl3  1 <0>      -0.4500
    7 C7       -2.8327    -3.9990    -0.0071 C.3    1 <0>       0.3100
    8 H8       -2.1519    -4.5990    -0.6108 H      1 <0>       0.1200
    9 O9       -4.1823    -4.1121    -0.5089 O.3    1 <0>      -0.3500
   10 C10      -4.6639    -5.3837    -0.0221 C.3    1 <0>       0.0500
   11 H11      -4.2641    -6.1976    -0.6269 H      1 <0>       0.1000
   12 C12      -6.1935    -5.4139    -0.0342 C.3    1 <0>       0.0800
   13 O13      -6.6601    -5.3693    -1.3842 O.3    1 <0>      -0.5600
   14 C14      -4.1332    -5.4787     1.4256 C.3    1 <0>       0.0400
   15 H15      -3.8399    -6.5023     1.6585 H      1 <0>       0.0900
   16 O16      -5.1197    -5.0189     2.3517 O.3    1 <0>      -0.5400
   17 C17      -2.8980    -4.5476     1.4355 C.3    1 <0>       0.0800
   18 H18      -1.9963    -5.1119     1.6736 H      1 <0>       0.1000
   19 O19      -3.0817    -3.4820     2.3697 O.3    1 <0>      -0.5300
   20 C20      -1.1125    -2.1421    -0.0049 C.ar   1 <0>       0.3100
   21 N21       0.0849    -2.7183    -0.0145 N.ar   1 <0>      -0.5600
   22 C22       1.1806    -1.9886    -0.0159 C.ar   1 <0>       0.3600
   23 N23       1.1531    -0.6685    -0.0125 N.ar   1 <0>      -0.5900
   24 H24       0.8167     1.8761     0.0043 H      1 <0>       0.4100
   25 H25      -0.8632     1.8532     0.0162 H      1 <0>       0.4200
   26 H26      -4.3032    -1.5401     0.0154 H      1 <0>       0.2200
   27 H27      -6.5426    -6.3308     0.4407 H      1 <0>       0.0600
   28 H28      -6.5783    -4.5526     0.5119 H      1 <0>       0.0700
   29 H29      -7.6233    -5.3853    -1.4681 H      1 <0>       0.3900
   30 H30      -5.9379    -5.5342     2.3429 H      1 <0>       0.3800
   31 H31      -3.1904    -3.7754     3.2847 H      1 <0>       0.3900
   32 H32       2.1380    -2.4885    -0.0238 H      1 <0>       0.2000
@<TRIPOS>BOND
   1    1    2 1
   2    1   24 1
   3    1   25 1
   4    2   23 ar
   5    2    3 ar
   6    3   20 ar
   7    3    4 1
   8    4    5 2
   9    5    6 1
  10    5   26 1
  11    6    7 1
  12    6   20 1
  13    7    8 1
  14    7   17 1
  15    7    9 1
  16    9   10 1
  17   10   11 1
  18   10   12 1
  19   10   14 1
  20   12   13 1
  21   12   27 1
  22   12   28 1
  23   13   29 1
  24   14   15 1
  25   14   16 1
  26   14   17 1
  27   16   30 1
  28   17   18 1
  29   17   19 1
  30   19   31 1
  31   20   21 ar
  32   21   22 ar
  33   22   23 ar
  34   22   32 1
@<TRIPOS>MOLECULE
ZINC000008614390
  31   33    0    0    0
SMALL
USER_CHARGES
NO_NAME
@<TRIPOS>ATOM
    1 O1        0.0024    -0.0041     0.0296 O.2    1 <0>      -0.5100
    2 C2       -0.0138     1.2147     0.0448 C.2    1 <0>       0.5800
    3 N3       -1.1819     1.8931     0.0958 N.am   1 <0>      -0.6400
    4 C4       -1.1878     3.2498     0.1118 C.2    1 <0>       0.3900
    5 N5       -0.0882     3.9492     0.0795 N.2    1 <0>      -0.5100
    6 C6        1.1124     3.3552     0.0288 C.2    1 <0>       0.2800
    7 C7        1.1918     1.9592     0.0156 C.2    1 <0>      -0.1100
    8 N8        2.5037     1.6314    -0.0383 N.2    1 <0>      -0.4200
    9 C9        3.2188     2.7191    -0.0585 C.2    1 <0>       0.2100
   10 N10       2.4020     3.8092    -0.0141 N.pl3  1 <0>      -0.4500
   11 C11       2.8271     5.2112    -0.0197 C.3    1 <0>       0.3000
   12 H12       2.1824     5.7998    -0.6723 H      1 <0>       0.1500
   13 O13       4.2036     5.3174    -0.4439 O.3    1 <0>      -0.3200
   14 C14       4.9874     4.9464     0.7111 C.3    1 <0>       0.0300
   15 H15       5.0024     3.8628     0.8273 H      1 <0>       0.1000
   16 C16       6.4129     5.4872     0.5834 C.3    1 <0>       0.0800
   17 O17       7.0755     4.8323    -0.5002 O.3    1 <0>      -0.5600
   18 C18       4.2647     5.6056     1.9068 C.3    1 <0>       0.0500
   19 H19       4.2956     4.9525     2.7789 H      1 <0>       0.0900
   20 O20       4.8523     6.8723     2.2104 O.3    1 <0>      -0.5500
   21 C21       2.8080     5.7846     1.4146 C.3    1 <0>       0.0800
   22 H22       2.5362     6.8401     1.4018 H      1 <0>       0.1100
   23 O23       1.9059     5.0465     2.2413 O.3    1 <0>      -0.5400
   24 H24      -2.0210     1.4070     0.1207 H      1 <0>       0.4300
   25 H25      -2.1348     3.7674     0.1524 H      1 <0>       0.2200
   26 H26       4.2975     2.7525    -0.1006 H      1 <0>       0.2200
   27 H27       6.3789     6.5599     0.3934 H      1 <0>       0.0700
   28 H28       6.9571     5.2991     1.5089 H      1 <0>       0.0700
   29 H29       7.9861     5.1263    -0.6398 H      1 <0>       0.3900
   30 H30       5.7831     6.8226     2.4676 H      1 <0>       0.3900
   31 H31       1.9014     5.3270     3.1667 H      1 <0>       0.3900
@<TRIPOS>BOND
   1    1    2 2
   2    2    7 1
   3    2    3 am
   4    3    4 1
   5    3   24 1
   6    4    5 2
   7    4   25 1
   8    5    6 1
   9    6   10 1
  10    6    7 2
  11    7    8 1
  12    8    9 2
  13    9   10 1
  14    9   26 1
  15   10   11 1
  16   11   12 1
  17   11   21 1
  18   11   13 1
  19   13   14 1
  20   14   15 1
  21   14   16 1
  22   14   18 1
  23   16   17 1
  24   16   27 1
  25   16   28 1
  26   17   29 1
  27   18   19 1
  28   18   20 1
  29   18   21 1
  30   20   30 1
  31   21   22 1
  32   21   23 1
  33   23   31 1
@<TRIPOS>MOLECULE
ZINC000008652273
  31   33    0    0    0
SMALL
USER_CHARGES
NO_NAME
@<TRIPOS>ATOM
    1 O1        0.0021    -0.0041     0.0020 O.2    1 <0>      -0.5100
    2 C2       -0.0145     1.2148     0.0087 C.2    1 <0>       0.5700
    3 N3       -1.1834     1.8932     0.0292 N.am   1 <0>      -0.6400
    4 C4       -1.1897     3.2501     0.0360 C.2    1 <0>       0.3900
    5 N5       -0.0897     3.9495     0.0233 N.2    1 <0>      -0.5200
    6 C6        1.1117     3.3553     0.0032 C.2    1 <0>       0.2500
    7 C7        1.1915     1.9593     0.0012 C.2    1 <0>      -0.0900
    8 N8        2.5042     1.6313    -0.0214 N.2    1 <0>      -0.4300
    9 C9        3.2196     2.7189    -0.0331 C.2    1 <0>       0.2600
   10 N10       2.4020     3.8092    -0.0141 N.pl3  1 <0>      -0.4300
   11 C11       2.8271     5.2112    -0.0197 C.3    1 <0>       0.3100
   12 H12       2.1548     5.8132     0.5915 H      1 <0>       0.1200
   13 O13       4.1838     5.3270     0.4619 O.3    1 <0>      -0.3500
   14 C14       4.6575     6.5969    -0.0370 C.3    1 <0>       0.0500
   15 H15       4.2661     7.4131     0.5703 H      1 <0>       0.1000
   16 C16       6.1871     6.6280    -0.0472 C.3    1 <0>       0.0800
   17 O17       6.6733     6.5891     1.2959 O.3    1 <0>      -0.5600
   18 C18       4.1057     6.6858    -1.4772 C.3    1 <0>       0.0500
   19 H19       3.8084     7.7083    -1.7098 H      1 <0>       0.0900
   20 O20       5.0789     6.2228    -2.4156 O.3    1 <0>      -0.5400
   21 C21       2.8711     5.7540    -1.4653 C.3    1 <0>       0.0800
   22 H22       1.9657     6.3168    -1.6925 H      1 <0>       0.1000
   23 O23       3.0417     4.6847    -2.3978 O.3    1 <0>      -0.5300
   24 H24      -2.0228     1.4072     0.0388 H      1 <0>       0.4300
   25 H25      -2.1374     3.7678     0.0521 H      1 <0>       0.2200
   26 H26       4.2990     2.7523    -0.0515 H      1 <0>       0.2200
   27 H27       6.5644     5.7647    -0.5954 H      1 <0>       0.0700
   28 H28       6.5287     7.5432    -0.5309 H      1 <0>       0.0700
   29 H29       7.6377     6.6060     1.3658 H      1 <0>       0.3900
   30 H30       5.8968     6.7386    -2.4209 H      1 <0>       0.3800
   31 H31       3.1369     4.9745    -3.3154 H      1 <0>       0.3900
@<TRIPOS>BOND
   1    1    2 2
   2    2    7 1
   3    2    3 am
   4    3    4 1
   5    3   24 1
   6    4    5 2
   7    4   25 1
   8    5    6 1
   9    6   10 1
  10    6    7 2
  11    7    8 1
  12    8    9 2
  13    9   10 1
  14    9   26 1
  15   10   11 1
  16   11   12 1
  17   11   21 1
  18   11   13 1
  19   13   14 1
  20   14   15 1
  21   14   16 1
  22   14   18 1
  23   16   17 1
  24   16   27 1
  25   16   28 1
  26   17   29 1
  27   18   19 1
  28   18   20 1
  29   18   21 1
  30   20   30 1
  31   21   22 1
  32   21   23 1
  33   23   31 1
@<TRIPOS>MOLECULE
ZINC000008652274
  31   33    0    0    0
SMALL
USER_CHARGES
NO_NAME
@<TRIPOS>ATOM
    1 O1        0.0021    -0.0041     0.0020 O.2    1 <0>      -0.5100
    2 C2       -0.0145     1.2148     0.0087 C.2    1 <0>       0.5800
    3 N3       -1.1834     1.8932     0.0292 N.am   1 <0>      -0.6400
    4 C4       -1.1897     3.2501     0.0360 C.2    1 <0>       0.3900
    5 N5       -0.0897     3.9495     0.0233 N.2    1 <0>      -0.5100
    6 C6        1.1117     3.3553     0.0032 C.2    1 <0>       0.2600
    7 C7        1.1915     1.9593     0.0012 C.2    1 <0>      -0.1000
    8 N8        2.5042     1.6313    -0.0214 N.2    1 <0>      -0.4300
    9 C9        3.2196     2.7189    -0.0331 C.2    1 <0>       0.2400
   10 N10       2.4020     3.8092    -0.0141 N.pl3  1 <0>      -0.4500
   11 C11       2.8271     5.2112    -0.0197 C.3    1 <0>       0.3100
   12 H12       2.1548     5.8132     0.5915 H      1 <0>       0.1300
   13 O13       4.1838     5.3270     0.4619 O.3    1 <0>      -0.3400
   14 C14       4.6575     6.5969    -0.0370 C.3    1 <0>       0.0500
   15 H15       4.2661     7.4131     0.5703 H      1 <0>       0.1000
   16 C16       6.1871     6.6280    -0.0472 C.3    1 <0>       0.0800
   17 O17       6.6733     6.5891     1.2959 O.3    1 <0>      -0.5600
   18 C18       4.1057     6.6858    -1.4772 C.3    1 <0>       0.0500
   19 H19       3.8084     7.7083    -1.7098 H      1 <0>       0.1000
   20 O20       5.0789     6.2228    -2.4156 O.3    1 <0>      -0.5500
   21 C21       2.8711     5.7540    -1.4653 C.3    1 <0>       0.0800
   22 H22       3.0023     4.9371    -2.1748 H      1 <0>       0.0900
   23 O23       1.6845     6.4913    -1.7663 O.3    1 <0>      -0.5400
   24 H24      -2.0228     1.4072     0.0388 H      1 <0>       0.4300
   25 H25      -2.1374     3.7678     0.0521 H      1 <0>       0.2200
   26 H26       4.2990     2.7523    -0.0515 H      1 <0>       0.2300
   27 H27       6.5644     5.7647    -0.5954 H      1 <0>       0.0700
   28 H28       6.5287     7.5432    -0.5309 H      1 <0>       0.0700
   29 H29       7.6377     6.6060     1.3658 H      1 <0>       0.3900
   30 H30       5.8968     6.7386    -2.4209 H      1 <0>       0.3900
   31 H31       1.6884     6.9025    -2.6415 H      1 <0>       0.3900
@<TRIPOS>BOND
   1    1    2 2
   2    2    7 1
   3    2    3 am
   4    3    4 1
   5    3   24 1
   6    4    5 2
   7    4   25 1
   8    5    6 1
   9    6   10 1
  10    6    7 2
  11    7    8 1
  12    8    9 2
  13    9   10 1
  14    9   26 1
  15   10   11 1
  16   11   12 1
  17   11   21 1
  18   11   13 1
  19   13   14 1
  20   14   15 1
  21   14   16 1
  22   14   18 1
  23   16   17 1
  24   16   27 1
  25   16   28 1
  26   17   29 1
  27   18   19 1
  28   18   20 1
  29   18   21 1
  30   20   30 1
  31   21   22 1
  32   21   23 1
  33   23   31 1
@<TRIPOS>MOLECULE
ZINC000011616871
32    33    1     0     0
SMALL
USER_CHARGES
@<TRIPOS>ATOM
1      N1     -0.0162    1.3436    0.0094 N.am     1 ZINC000011616871   -0.8400
2      C2      0.0021   -0.0041    0.0020 C.2      1 ZINC000011616871    0.6200
3      O3      1.0644   -0.5983   -0.0113 O.2      1 ZINC000011616871   -0.5700
4      C4     -1.2564   -0.7537    0.0100 C.2      1 ZINC000011616871   -0.1600
5      C5     -1.3918   -2.1345    0.0095 C.2      1 ZINC000011616871    0.3700
6      N6     -0.3728   -3.0654    0.0011 N.pl3    1 ZINC000011616871   -0.8300
7      N7     -2.7315   -2.3894    0.0194 N.pl3    1 ZINC000011616871   -0.4800
8      C8     -3.3598   -3.7128    0.0234 C.3      1 ZINC000011616871    0.3100
9      H9     -2.7797   -4.4137   -0.5769 H        1 ZINC000011616871    0.1200
10     O10    -4.7179   -3.6323   -0.4599 O.3      1 ZINC000011616871   -0.3400
11     C11    -5.4085   -4.7924    0.0336 C.3      1 ZINC000011616871    0.0500
12     H12    -5.3614   -5.5935   -0.7040 H        1 ZINC000011616871    0.1000
13     C13    -6.8684   -4.4425    0.3289 C.3      1 ZINC000011616871    0.0800
14     O14    -7.5413   -4.1356   -0.8938 O.3      1 ZINC000011616871   -0.5600
15     C15    -4.6991   -5.2311    1.3294 C.3      1 ZINC000011616871    0.0500
16     H16    -5.3748   -5.1490    2.1808 H        1 ZINC000011616871    0.0900
17     O17    -4.2132   -6.5692    1.2053 O.3      1 ZINC000011616871   -0.5500
18     C18    -3.5185   -4.2373    1.4733 C.3      1 ZINC000011616871    0.0700
19     H19    -2.6165   -4.7505    1.8065 H        1 ZINC000011616871    0.1000
20     O20    -3.8546   -3.1717    2.3642 O.3      1 ZINC000011616871   -0.5300
21     C21    -3.3809   -1.1898    0.0257 C.2      1 ZINC000011616871    0.2200
22     N22    -2.5106   -0.2254    0.0253 N.2      1 ZINC000011616871   -0.4400
23     H23     0.8172    1.8399    0.0041 H        1 ZINC000011616871    0.4000
24     H24    -0.8627    1.8171    0.0160 H        1 ZINC000011616871    0.4100
25     H25     0.5518   -2.7723   -0.0057 H        1 ZINC000011616871    0.4300
26     H26    -0.5813   -4.0127    0.0019 H        1 ZINC000011616871    0.4000
27     H27    -7.3556   -5.2913    0.8086 H        1 ZINC000011616871    0.0600
28     H28    -6.9079   -3.5784    0.9921 H        1 ZINC000011616871    0.0600
29     H29    -8.4735   -3.9039   -0.7823 H        1 ZINC000011616871    0.3900
30     H30    -4.9060   -7.2269    1.0554 H        1 ZINC000011616871    0.3900
31     H31    -4.0547   -3.4606    3.2651 H        1 ZINC000011616871    0.3900
32     H32    -4.4533   -1.0617    0.0340 H        1 ZINC000011616871    0.2100
@<TRIPOS>BOND
1     1     2     am
2     1     23    1
3     1     24    1
4     2     3     2
5     2     4     1
6     4     22    1
7     4     5     2
8     5     6     1
9     5     7     1
10    6     25    1
11    6     26    1
12    7     8     1
13    7     21    1
14    8     9     1
15    8     18    1
16    8     10    1
17    10    11    1
18    11    12    1
19    11    13    1
20    11    15    1
21    13    14    1
22    13    27    1
23    13    28    1
24    14    29    1
25    15    16    1
26    15    17    1
27    15    18    1
28    17    30    1
29    18    19    1
30    18    20    1
31    20    31    1
32    21    22    2
33    21    32    1
@<TRIPOS>SUBSTRUCTURE
1   ZINC000011616871 1     RESIDUE    1   A     ZIN   1
@<TRIPOS>MOLECULE
ZINC000012358753
31    33    1     0     0
SMALL
USER_CHARGES
@<TRIPOS>ATOM
1      O1      0.0021   -0.0041    0.0020 O.2      1 ZINC000012358753   -0.5100
2      C2     -0.0145    1.2148    0.0087 C.2      1 ZINC000012358753    0.5700
3      N3     -1.1834    1.8932    0.0292 N.am     1 ZINC000012358753   -0.6400
4      C4     -1.1897    3.2501    0.0360 C.2      1 ZINC000012358753    0.3900
5      N5     -0.0897    3.9495    0.0233 N.2      1 ZINC000012358753   -0.5200
6      C6      1.1117    3.3553    0.0032 C.2      1 ZINC000012358753    0.2500
7      C7      1.1915    1.9593    0.0012 C.2      1 ZINC000012358753   -0.0900
8      N8      2.5042    1.6313   -0.0214 N.2      1 ZINC000012358753   -0.4300
9      C9      3.2196    2.7189   -0.0331 C.2      1 ZINC000012358753    0.2600
10     N10     2.4020    3.8092   -0.0141 N.pl3    1 ZINC000012358753   -0.4400
11     C11     2.8271    5.2112   -0.0197 C.3      1 ZINC000012358753    0.3100
12     H12     2.1333    5.8191   -0.6004 H        1 ZINC000012358753    0.1300
13     O13     4.1684    5.3336   -0.5397 O.3      1 ZINC000012358753   -0.3500
14     C14     4.6927    6.5826   -0.0586 C.3      1 ZINC000012358753    0.0600
15     H15     4.5073    7.3689   -0.7903 H        1 ZINC000012358753    0.1000
16     C16     6.1958    6.4525    0.1954 C.3      1 ZINC000012358753    0.0800
17     O17     6.8731    6.2506   -1.0466 O.3      1 ZINC000012358753   -0.5600
18     C18     3.9619    6.9093    1.2582 C.3      1 ZINC000012358753    0.0500
19     H19     4.6653    6.9271    2.0906 H        1 ZINC000012358753    0.0900
20     O20     3.2798    8.1607    1.1545 O.3      1 ZINC000012358753   -0.5500
21     C21     2.9460    5.7512    1.4283 C.3      1 ZINC000012358753    0.0700
22     H22     1.9873    6.1245    1.7883 H        1 ZINC000012358753    0.1000
23     O23     3.4605    4.7460    2.3039 O.3      1 ZINC000012358753   -0.5400
24     H24    -2.0228    1.4072    0.0388 H        1 ZINC000012358753    0.4300
25     H25    -2.1374    3.7678    0.0521 H        1 ZINC000012358753    0.2200
26     H26     4.2990    2.7523   -0.0515 H        1 ZINC000012358753    0.2200
27     H27     6.5649    7.3635    0.6666 H        1 ZINC000012358753    0.0600
28     H28     6.3811    5.6029    0.8526 H        1 ZINC000012358753    0.0600
29     H29     7.8320    6.1595   -0.9614 H        1 ZINC000012358753    0.3900
30     H30     3.8632    8.9141    0.9896 H        1 ZINC000012358753    0.3900
31     H31     3.6402    5.0600    3.2007 H        1 ZINC000012358753    0.3900
@<TRIPOS>BOND
1     1     2     2
2     2     7     1
3     2     3     am
4     3     4     1
5     3     24    1
6     4     5     2
7     4     25    1
8     5     6     1
9     6     10    1
10    6     7     2
11    7     8     1
12    8     9     2
13    9     10    1
14    9     26    1
15    10    11    1
16    11    12    1
17    11    21    1
18    11    13    1
19    13    14    1
20    14    15    1
21    14    16    1
22    14    18    1
23    16    17    1
24    16    27    1
25    16    28    1
26    17    29    1
27    18    19    1
28    18    20    1
29    18    21    1
30    20    30    1
31    21    22    1
32    21    23    1
33    23    31    1
@<TRIPOS>SUBSTRUCTURE
1   ZINC000012358753 1     RESIDUE    1   A     ZIN   1
@<TRIPOS>MOLECULE
ZINC000012493443
30    32    1     0     0
SMALL
USER_CHARGES
@<TRIPOS>ATOM
1      O1      0.0021   -0.0041    0.0020 O.2      1 ZINC000012493443   -0.5100
2      C2     -0.0145    1.2148    0.0087 C.2      1 ZINC000012493443    0.5700
3      N3     -1.1834    1.8932    0.0292 N.am     1 ZINC000012493443   -0.6400
4      C4     -1.1897    3.2501    0.0360 C.2      1 ZINC000012493443    0.3900
5      N5     -0.0897    3.9495    0.0233 N.2      1 ZINC000012493443   -0.5200
6      C6      1.1117    3.3553    0.0032 C.2      1 ZINC000012493443    0.2600
7      C7      1.1915    1.9593    0.0012 C.2      1 ZINC000012493443   -0.1000
8      N8      2.5042    1.6313   -0.0214 N.2      1 ZINC000012493443   -0.4300
9      C9      3.2196    2.7189   -0.0331 C.2      1 ZINC000012493443    0.2400
10     N10     2.4020    3.8092   -0.0141 N.pl3    1 ZINC000012493443   -0.4500
11     C11     2.8271    5.2112   -0.0197 C.3      1 ZINC000012493443    0.3000
12     H12     2.1311    5.8157   -0.6012 H        1 ZINC000012493443    0.1200
13     C13     2.9285    5.7481    1.4252 C.3      1 ZINC000012493443   -0.1900
14     C14     4.1600    6.6808    1.3936 C.3      1 ZINC000012493443    0.0800
15     H15     4.9278    6.3229    2.0795 H        1 ZINC000012493443    0.0800
16     O16     3.7826    8.0196    1.7209 O.3      1 ZINC000012493443   -0.5500
17     C17     4.6569    6.5970   -0.0667 C.3      1 ZINC000012493443    0.0900
18     H18     4.2430    7.4152   -0.6559 H        1 ZINC000012493443    0.1000
19     C19     6.1859    6.6299   -0.1117 C.3      1 ZINC000012493443    0.0900
20     O20     6.6216    6.6689   -1.4721 O.3      1 ZINC000012493443   -0.5700
21     O21     4.1636    5.3291   -0.5544 O.3      1 ZINC000012493443   -0.3500
22     H22    -2.0228    1.4072    0.0388 H        1 ZINC000012493443    0.4300
23     H23    -2.1374    3.7678    0.0521 H        1 ZINC000012493443    0.2200
24     H24     4.2990    2.7523   -0.0515 H        1 ZINC000012493443    0.2300
25     H25     2.0315    6.3087    1.6882 H        1 ZINC000012493443    0.1100
26     H26     3.0876    4.9292    2.1267 H        1 ZINC000012493443    0.0900
27     H27     3.4083    8.1172    2.6072 H        1 ZINC000012493443    0.3900
28     H28     6.5458    7.5163    0.4106 H        1 ZINC000012493443    0.0700
29     H29     6.5829    5.7372    0.3715 H        1 ZINC000012493443    0.0600
30     H30     7.5827    6.6913   -1.5768 H        1 ZINC000012493443    0.3900
@<TRIPOS>BOND
1     1     2     2
2     2     7     1
3     2     3     am
4     3     4     1
5     3     22    1
6     4     5     2
7     4     23    1
8     5     6     1
9     6     10    1
10    6     7     2
11    7     8     1
12    8     9     2
13    9     10    1
14    9     24    1
15    10    11    1
16    11    12    1
17    11    21    1
18    11    13    1
19    13    14    1
20    13    25    1
21    13    26    1
22    14    15    1
23    14    16    1
24    14    17    1
25    16    27    1
26    17    18    1
27    17    19    1
28    17    21    1
29    19    20    1
30    19    28    1
31    19    29    1
32    20    30    1
@<TRIPOS>SUBSTRUCTURE
1   ZINC000012493443 1     RESIDUE    1   A     ZIN   1
